
 OpenBabel09252602233D

 46 49  0  0  0  0  0  0  0  0999 V2000
    2.3310   -0.6351   -0.7922 O   0  5  0  0  0  0  0  0  0  0  0  0
    1.6997   -0.9631    1.3544 O   0  0  0  0  0  0  0  0  0  0  0  0
    2.2843   -0.3028    0.5161 C   0  0  0  0  0  0  0  0  0  0  0  0
    9.2256   11.4917   -2.5830 Cl  0  0  0  0  0  0  0  0  0  0  0  0
    6.9451   10.7544    1.2161 C   0  0  0  0  0  0  0  0  0  0  0  0
    7.2148   12.0594    0.8016 C   0  0  0  0  0  0  0  0  0  0  0  0
    7.9049   12.3002   -0.3789 C   0  0  0  0  0  0  0  0  0  0  0  0
    8.3459   11.2170   -1.1300 C   0  0  0  0  0  0  0  0  0  0  0  0
    8.0806    9.9069   -0.7195 C   0  0  0  0  0  0  0  0  0  0  0  0
    7.3328    9.6552    0.4376 C   0  0  0  0  0  0  0  0  0  0  0  0
    7.1190    8.3299    0.8330 N   0  0  0  0  0  0  0  0  0  0  0  0
    5.9175    8.0347    1.6161 C   0  0  0  0  0  0  0  0  0  0  0  0
    9.2264    7.8445    7.4151 F   0  0  0  0  0  0  0  0  0  0  0  0
    8.0079    7.3312    4.0397 C   0  0  0  0  0  0  0  0  0  0  0  0
    8.7568    7.8307    5.1077 C   0  0  0  0  0  0  0  0  0  0  0  0
    8.5044    7.3729    6.3918 C   0  0  0  0  0  0  0  0  0  0  0  0
    7.5141    6.4239    6.6253 C   0  0  0  0  0  0  0  0  0  0  0  0
    6.7565    5.9333    5.5563 C   0  0  0  0  0  0  0  0  0  0  0  0
    6.9854    6.3887    4.2490 C   0  0  0  0  0  0  0  0  0  0  0  0
    5.7126    4.6251    3.1042 N   0  0  0  0  0  0  0  0  0  0  0  0
    6.1772    5.8878    3.1258 C   0  0  0  0  0  0  0  0  0  0  0  0
    5.7484    6.5974    1.9651 C   0  0  0  0  0  0  0  0  0  0  0  0
    5.0856    5.6607    1.2062 C   0  0  0  0  0  0  0  0  0  0  0  0
    5.0551    4.4942    1.9261 N   0  0  0  0  0  0  0  0  0  0  0  0
    3.6653    1.0343    2.0886 C   0  0  0  0  0  0  0  0  0  0  0  0
    4.3533    2.2023    2.4417 C   0  0  0  0  0  0  0  0  0  0  0  0
    4.3998    3.2847    1.5520 C   0  0  0  0  0  0  0  0  0  0  0  0
    3.7631    3.1772    0.3040 C   0  0  0  0  0  0  0  0  0  0  0  0
    3.0758    2.0125   -0.0455 C   0  0  0  0  0  0  0  0  0  0  0  0
    3.0354    0.9339    0.8422 C   0  0  0  0  0  0  0  0  0  0  0  0
    6.6847   13.3806    1.7691 Cl  0  0  0  0  0  0  0  0  0  0  0  0
    6.4527   10.5964    2.1092 H   0  0  0  0  0  0  0  0  0  0  0  0
    8.0871   13.2662   -0.6931 H   0  0  0  0  0  0  0  0  0  0  0  0
    8.4403    9.1157   -1.2760 H   0  0  0  0  0  0  0  0  0  0  0  0
    7.7559    7.6188    0.5923 H   0  0  0  0  0  0  0  0  0  0  0  0
    5.0643    8.3440    1.0493 H   0  0  0  0  0  0  0  0  0  0  0  0
    6.0182    8.5636    2.5408 H   0  0  0  0  0  0  0  0  0  0  0  0
    8.2080    7.6591    3.0818 H   0  0  0  0  0  0  0  0  0  0  0  0
    9.4926    8.5351    4.9422 H   0  0  0  0  0  0  0  0  0  0  0  0
    7.3390    6.0831    7.5836 H   0  0  0  0  0  0  0  0  0  0  0  0
    6.0221    5.2296    5.7310 H   0  0  0  0  0  0  0  0  0  0  0  0
    4.6848    5.8090    0.2668 H   0  0  0  0  0  0  0  0  0  0  0  0
    3.6225    0.2438    2.7505 H   0  0  0  0  0  0  0  0  0  0  0  0
    4.8260    2.2659    3.3569 H   0  0  0  0  0  0  0  0  0  0  0  0
    3.8036    3.9659   -0.3604 H   0  0  0  0  0  0  0  0  0  0  0  0
    2.5984    1.9486   -0.9582 H   0  0  0  0  0  0  0  0  0  0  0  0
  3  1  1  0  0  0  0
  3  2  2  0  0  0  0
  5  6  2  0  0  0  0
  5 32  1  0  0  0  0
  6  7  1  0  0  0  0
  6 31  1  0  0  0  0
  7  8  2  0  0  0  0
  7 33  1  0  0  0  0
  8  4  1  0  0  0  0
  8  9  1  0  0  0  0
  9 10  2  0  0  0  0
  9 34  1  0  0  0  0
 10  5  1  0  0  0  0
 11 10  1  0  0  0  0
 11 35  1  0  0  0  0
 12 11  1  0  0  0  0
 12 36  1  0  0  0  0
 12 37  1  0  0  0  0
 14 15  2  0  0  0  0
 14 38  1  0  0  0  0
 15 16  1  0  0  0  0
 15 39  1  0  0  0  0
 16 13  1  0  0  0  0
 16 17  2  0  0  0  0
 17 18  1  0  0  0  0
 17 40  1  0  0  0  0
 18 19  2  0  0  0  0
 18 41  1  0  0  0  0
 19 14  1  0  0  0  0
 20 24  1  0  0  0  0
 21 19  1  0  0  0  0
 21 20  2  0  0  0  0
 22 12  1  0  0  0  0
 22 21  1  0  0  0  0
 23 22  2  0  0  0  0
 23 24  1  0  0  0  0
 23 42  1  0  0  0  0
 25 26  2  0  0  0  0
 25 43  1  0  0  0  0
 26 27  1  0  0  0  0
 26 44  1  0  0  0  0
 27 24  1  0  0  0  0
 27 28  2  0  0  0  0
 28 29  1  0  0  0  0
 28 45  1  0  0  0  0
 29 30  2  0  0  0  0
 29 46  1  0  0  0  0
 30  3  1  0  0  0  0
 30 25  1  0  0  0  0
M  CHG  1   1  -1
M  END
>  <Energy>
60.331

> <PREPARED_BY>
siam chowdhury
Computational and Medicinal Chemistry
[Dr. Alam's Research Team] www.alamresearch.org
Arkansas State University

$$$$
