20sa23_out
     RDKit          3D

 46 49  0  0  0  0  0  0  0  0999 V2000
   15.3040   18.1600   33.1110 O   0  0  0  0  0  0  0  0  0  0  0  0
   14.5780   19.1310   33.2010 C   0  0  0  0  0  0  0  0  0  0  0  0
   14.7940   20.1430   34.0690 O   0  0  0  0  0  0  0  0  0  0  0  0
   13.3530   19.3020   32.3820 C   0  0  0  0  0  0  0  0  0  0  0  0
   13.0560   20.5700   31.8660 C   0  0  0  0  0  0  0  0  0  0  0  0
   11.8900   20.7740   31.1180 C   0  0  0  0  0  0  0  0  0  0  0  0
   11.0040   19.7100   30.8960 C   0  0  0  0  0  0  0  0  0  0  0  0
    9.7910   19.9230   30.1780 N   0  0  0  0  0  0  0  0  0  0  0  0
    8.5250   19.6230   30.6110 C   0  0  0  0  0  0  0  0  0  0  0  0
    7.6450   20.0680   29.6530 C   0  0  0  0  0  0  0  0  0  0  0  0
    6.1590   20.0460   29.7610 C   0  0  0  0  0  0  0  0  0  0  0  0
    5.6110   18.8060   30.3120 N   0  0  0  0  0  0  0  0  0  0  0  0
    4.9200   17.9540   29.4430 C   0  0  0  0  0  0  0  0  0  0  0  0
    3.7730   17.2950   29.9070 C   0  0  0  0  0  0  0  0  0  0  0  0
    3.0740   16.4090   29.0820 C   0  0  0  0  0  0  0  0  0  0  0  0
    1.6430   15.6530   29.6650 Cl  0  0  0  0  0  0  0  0  0  0  0  0
    3.5190   16.1350   27.7940 C   0  0  0  0  0  0  0  0  0  0  0  0
    4.6880   16.7380   27.3470 C   0  0  0  0  0  0  0  0  0  0  0  0
    5.2810   16.3920   25.7690 Cl  0  0  0  0  0  0  0  0  0  0  0  0
    5.3900   17.6240   28.1650 C   0  0  0  0  0  0  0  0  0  0  0  0
    8.4710   20.5630   28.6010 C   0  0  0  0  0  0  0  0  0  0  0  0
    8.0550   21.1050   27.2980 C   0  0  0  0  0  0  0  0  0  0  0  0
    7.4090   20.2920   26.3490 C   0  0  0  0  0  0  0  0  0  0  0  0
    6.9860   20.8100   25.1230 C   0  0  0  0  0  0  0  0  0  0  0  0
    7.2270   22.1430   24.8270 C   0  0  0  0  0  0  0  0  0  0  0  0
    6.8300   22.6400   23.6490 F   0  0  0  0  0  0  0  0  0  0  0  0
    7.8850   22.9650   25.7360 C   0  0  0  0  0  0  0  0  0  0  0  0
    8.2970   22.4470   26.9690 C   0  0  0  0  0  0  0  0  0  0  0  0
    9.7680   20.5040   28.9540 N   0  0  0  0  0  0  0  0  0  0  0  0
   11.3080   18.4420   31.4190 C   0  0  0  0  0  0  0  0  0  0  0  0
   12.4700   18.2410   32.1660 C   0  0  0  0  0  0  0  0  0  0  0  0
   13.7423   21.4098   32.0494 H   0  0  0  0  0  0  0  0  0  0  0  0
   11.6690   21.7691   30.7045 H   0  0  0  0  0  0  0  0  0  0  0  0
    8.2617   19.1187   31.5524 H   0  0  0  0  0  0  0  0  0  0  0  0
    5.8490   20.8777   30.4107 H   0  0  0  0  0  0  0  0  0  0  0  0
    5.7686   20.1336   28.7364 H   0  0  0  0  0  0  0  0  0  0  0  0
    5.7250   18.5780   31.2630 H   0  0  0  0  0  0  0  0  0  0  0  0
    3.4188   17.4772   30.9324 H   0  0  0  0  0  0  0  0  0  0  0  0
    2.9556   15.4529   27.1403 H   0  0  0  0  0  0  0  0  0  0  0  0
    6.3271   18.0704   27.8008 H   0  0  0  0  0  0  0  0  0  0  0  0
    7.2340   19.2301   26.5765 H   0  0  0  0  0  0  0  0  0  0  0  0
    6.4661   20.1661   24.3984 H   0  0  0  0  0  0  0  0  0  0  0  0
    8.0808   24.0183   25.4866 H   0  0  0  0  0  0  0  0  0  0  0  0
    8.8158   23.0987   27.6874 H   0  0  0  0  0  0  0  0  0  0  0  0
   10.6240   17.5997   31.2382 H   0  0  0  0  0  0  0  0  0  0  0  0
   12.6903   17.2478   32.5844 H   0  0  0  0  0  0  0  0  0  0  0  0
  1  2  2  0
  2  3  1  0
  2  4  1  0
  4  5  2  0
  5  6  1  0
  6  7  2  0
  7  8  1  0
  8  9  1  0
  9 10  2  0
 10 11  1  0
 11 12  1  0
 12 13  1  0
 13 14  2  0
 14 15  1  0
 15 16  1  0
 15 17  2  0
 17 18  1  0
 18 19  1  0
 18 20  2  0
 10 21  1  0
 21 22  1  0
 22 23  2  0
 23 24  1  0
 24 25  2  0
 25 26  1  0
 25 27  1  0
 27 28  2  0
 21 29  2  0
  7 30  1  0
 30 31  2  0
 31  4  1  0
 29  8  1  0
 20 13  1  0
 28 22  1  0
  5 32  1  0
  6 33  1  0
  9 34  1  0
 11 35  1  0
 11 36  1  0
 12 37  1  0
 14 38  1  0
 17 39  1  0
 20 40  1  0
 23 41  1  0
 24 42  1  0
 27 43  1  0
 28 44  1  0
 30 45  1  0
 31 46  1  0
M  CHG  1   3  -1
M  END
>  <meeko>  (1) 
{"is_sidechain": [false], "free_energy": -7.297, "intermolecular_energy": -9.857, "internal_energy": -1.216}

> <PREPARED_BY>
siam chowdhury
Computational and Medicinal Chemistry
[Dr. Alam's Research Team] www.alamresearch.org
Arkansas State University

$$$$
20sa23_out
     RDKit          3D

 46 49  0  0  0  0  0  0  0  0999 V2000
   15.3140   18.2790   33.0460 O   0  0  0  0  0  0  0  0  0  0  0  0
   14.4960   19.1600   33.2310 C   0  0  0  0  0  0  0  0  0  0  0  0
   14.5900   20.0630   34.2300 O   0  0  0  0  0  0  0  0  0  0  0  0
   13.2860   19.3270   32.3900 C   0  0  0  0  0  0  0  0  0  0  0  0
   12.9770   20.6010   31.8950 C   0  0  0  0  0  0  0  0  0  0  0  0
   11.8230   20.8000   31.1270 C   0  0  0  0  0  0  0  0  0  0  0  0
   10.9610   19.7250   30.8630 C   0  0  0  0  0  0  0  0  0  0  0  0
    9.7590   19.9330   30.1260 N   0  0  0  0  0  0  0  0  0  0  0  0
    8.4910   19.5900   30.5200 C   0  0  0  0  0  0  0  0  0  0  0  0
    7.6220   20.0440   29.5560 C   0  0  0  0  0  0  0  0  0  0  0  0
    6.1360   19.9840   29.6300 C   0  0  0  0  0  0  0  0  0  0  0  0
    5.6090   18.7730   30.2610 N   0  0  0  0  0  0  0  0  0  0  0  0
    4.9340   17.8540   29.4510 C   0  0  0  0  0  0  0  0  0  0  0  0
    5.3920   17.6330   28.1450 C   0  0  0  0  0  0  0  0  0  0  0  0
    4.7250   16.7480   27.2930 C   0  0  0  0  0  0  0  0  0  0  0  0
    5.3420   16.4620   25.7120 Cl  0  0  0  0  0  0  0  0  0  0  0  0
    3.5710   16.0950   27.7080 C   0  0  0  0  0  0  0  0  0  0  0  0
    3.0750   16.3540   28.9790 C   0  0  0  0  0  0  0  0  0  0  0  0
    1.6290   15.5840   29.5080 Cl  0  0  0  0  0  0  0  0  0  0  0  0
    3.7370   17.2350   29.8360 C   0  0  0  0  0  0  0  0  0  0  0  0
    8.4590   20.5900   28.5390 C   0  0  0  0  0  0  0  0  0  0  0  0
    8.0590   21.1630   27.2440 C   0  0  0  0  0  0  0  0  0  0  0  0
    7.5240   20.3500   26.2280 C   0  0  0  0  0  0  0  0  0  0  0  0
    7.1150   20.8950   25.0090 C   0  0  0  0  0  0  0  0  0  0  0  0
    7.2610   22.2560   24.7870 C   0  0  0  0  0  0  0  0  0  0  0  0
    6.8780   22.7790   23.6160 F   0  0  0  0  0  0  0  0  0  0  0  0
    7.8090   23.0800   25.7650 C   0  0  0  0  0  0  0  0  0  0  0  0
    8.2070   22.5350   26.9900 C   0  0  0  0  0  0  0  0  0  0  0  0
    9.7490   20.5510   28.9190 N   0  0  0  0  0  0  0  0  0  0  0  0
   11.2770   18.4520   31.3660 C   0  0  0  0  0  0  0  0  0  0  0  0
   12.4270   18.2560   32.1330 C   0  0  0  0  0  0  0  0  0  0  0  0
   13.6440   21.4487   32.1107 H   0  0  0  0  0  0  0  0  0  0  0  0
   11.5923   21.7998   30.7305 H   0  0  0  0  0  0  0  0  0  0  0  0
    8.2189   19.0504   31.4391 H   0  0  0  0  0  0  0  0  0  0  0  0
    5.7852   20.8526   30.2066 H   0  0  0  0  0  0  0  0  0  0  0  0
    5.7705   19.9811   28.5925 H   0  0  0  0  0  0  0  0  0  0  0  0
    5.7270   18.6110   31.2250 H   0  0  0  0  0  0  0  0  0  0  0  0
    6.2870   18.1623   27.7861 H   0  0  0  0  0  0  0  0  0  0  0  0
    3.0592   15.3852   27.0415 H   0  0  0  0  0  0  0  0  0  0  0  0
    3.3127   17.4466   30.8286 H   0  0  0  0  0  0  0  0  0  0  0  0
    7.4263   19.2674   26.3966 H   0  0  0  0  0  0  0  0  0  0  0  0
    6.6805   20.2498   24.2312 H   0  0  0  0  0  0  0  0  0  0  0  0
    7.9289   24.1569   25.5753 H   0  0  0  0  0  0  0  0  0  0  0  0
    8.6402   23.1882   27.7618 H   0  0  0  0  0  0  0  0  0  0  0  0
   10.6122   17.6017   31.1536 H   0  0  0  0  0  0  0  0  0  0  0  0
   12.6566   17.2581   32.5349 H   0  0  0  0  0  0  0  0  0  0  0  0
  1  2  2  0
  2  3  1  0
  2  4  1  0
  4  5  2  0
  5  6  1  0
  6  7  2  0
  7  8  1  0
  8  9  1  0
  9 10  2  0
 10 11  1  0
 11 12  1  0
 12 13  1  0
 13 14  2  0
 14 15  1  0
 15 16  1  0
 15 17  2  0
 17 18  1  0
 18 19  1  0
 18 20  2  0
 10 21  1  0
 21 22  1  0
 22 23  2  0
 23 24  1  0
 24 25  2  0
 25 26  1  0
 25 27  1  0
 27 28  2  0
 21 29  2  0
  7 30  1  0
 30 31  2  0
 31  4  1  0
 29  8  1  0
 20 13  1  0
 28 22  1  0
  5 32  1  0
  6 33  1  0
  9 34  1  0
 11 35  1  0
 11 36  1  0
 12 37  1  0
 14 38  1  0
 17 39  1  0
 20 40  1  0
 23 41  1  0
 24 42  1  0
 27 43  1  0
 28 44  1  0
 30 45  1  0
 31 46  1  0
M  CHG  1   3  -1
M  END
>  <meeko>  (2) 
{"is_sidechain": [false], "free_energy": -7.271, "intermolecular_energy": -9.836, "internal_energy": -1.202}

> <PREPARED_BY>
siam chowdhury
Computational and Medicinal Chemistry
[Dr. Alam's Research Team] www.alamresearch.org
Arkansas State University

$$$$
20sa23_out
     RDKit          3D

 46 49  0  0  0  0  0  0  0  0999 V2000
    5.8710   13.7870   30.5530 O   0  0  0  0  0  0  0  0  0  0  0  0
    6.1490   14.1030   31.6940 C   0  0  0  0  0  0  0  0  0  0  0  0
    5.2530   14.1090   32.7030 O   0  0  0  0  0  0  0  0  0  0  0  0
    7.5060   14.5450   32.1010 C   0  0  0  0  0  0  0  0  0  0  0  0
    7.8350   14.5480   33.4630 C   0  0  0  0  0  0  0  0  0  0  0  0
    9.0950   14.9920   33.8840 C   0  0  0  0  0  0  0  0  0  0  0  0
   10.0280   15.4510   32.9430 C   0  0  0  0  0  0  0  0  0  0  0  0
   11.2920   15.9520   33.3710 N   0  0  0  0  0  0  0  0  0  0  0  0
   12.0680   16.8750   32.7160 C   0  0  0  0  0  0  0  0  0  0  0  0
   13.1570   17.1380   33.5130 C   0  0  0  0  0  0  0  0  0  0  0  0
   14.2040   18.1620   33.2410 C   0  0  0  0  0  0  0  0  0  0  0  0
   14.7610   18.7910   34.4400 N   0  0  0  0  0  0  0  0  0  0  0  0
   14.2740   20.0510   34.8040 C   0  0  0  0  0  0  0  0  0  0  0  0
   13.9790   20.9820   33.7990 C   0  0  0  0  0  0  0  0  0  0  0  0
   13.5220   22.2630   34.1230 C   0  0  0  0  0  0  0  0  0  0  0  0
   13.1220   23.3660   32.8640 Cl  0  0  0  0  0  0  0  0  0  0  0  0
   13.3850   22.6550   35.4490 C   0  0  0  0  0  0  0  0  0  0  0  0
   13.7330   21.7590   36.4510 C   0  0  0  0  0  0  0  0  0  0  0  0
   13.6050   22.2290   38.1020 Cl  0  0  0  0  0  0  0  0  0  0  0  0
   14.1880   20.4780   36.1360 C   0  0  0  0  0  0  0  0  0  0  0  0
   13.0190   16.2530   34.6230 C   0  0  0  0  0  0  0  0  0  0  0  0
   13.9400   16.0670   35.7550 C   0  0  0  0  0  0  0  0  0  0  0  0
   13.7040   16.6960   36.9910 C   0  0  0  0  0  0  0  0  0  0  0  0
   14.5610   16.4980   38.0760 C   0  0  0  0  0  0  0  0  0  0  0  0
   15.6750   15.6860   37.9270 C   0  0  0  0  0  0  0  0  0  0  0  0
   16.5000   15.5010   38.9640 F   0  0  0  0  0  0  0  0  0  0  0  0
   15.9460   15.0700   36.7100 C   0  0  0  0  0  0  0  0  0  0  0  0
   15.0810   15.2590   35.6260 C   0  0  0  0  0  0  0  0  0  0  0  0
   11.8620   15.5710   34.5400 N   0  0  0  0  0  0  0  0  0  0  0  0
    9.6880   15.4470   31.5800 C   0  0  0  0  0  0  0  0  0  0  0  0
    8.4310   15.0060   31.1620 C   0  0  0  0  0  0  0  0  0  0  0  0
    7.1008   14.2003   34.2046 H   0  0  0  0  0  0  0  0  0  0  0  0
    9.3528   14.9806   34.9533 H   0  0  0  0  0  0  0  0  0  0  0  0
   11.8574   17.3224   31.7334 H   0  0  0  0  0  0  0  0  0  0  0  0
   15.0257   17.6769   32.6937 H   0  0  0  0  0  0  0  0  0  0  0  0
   13.7178   18.9623   32.6638 H   0  0  0  0  0  0  0  0  0  0  0  0
   15.4560   18.3410   34.9730 H   0  0  0  0  0  0  0  0  0  0  0  0
   14.1085   20.7018   32.7432 H   0  0  0  0  0  0  0  0  0  0  0  0
   13.0076   23.6572   35.7004 H   0  0  0  0  0  0  0  0  0  0  0  0
   14.4834   19.7935   36.9448 H   0  0  0  0  0  0  0  0  0  0  0  0
   12.8303   17.3545   37.1048 H   0  0  0  0  0  0  0  0  0  0  0  0
   14.3537   16.9826   39.0415 H   0  0  0  0  0  0  0  0  0  0  0  0
   16.8380   14.4358   36.5996 H   0  0  0  0  0  0  0  0  0  0  0  0
   15.2970   14.7702   34.6645 H   0  0  0  0  0  0  0  0  0  0  0  0
   10.4190   15.7946   30.8351 H   0  0  0  0  0  0  0  0  0  0  0  0
    8.1695   15.0217   30.0937 H   0  0  0  0  0  0  0  0  0  0  0  0
  1  2  2  0
  2  3  1  0
  2  4  1  0
  4  5  2  0
  5  6  1  0
  6  7  2  0
  7  8  1  0
  8  9  1  0
  9 10  2  0
 10 11  1  0
 11 12  1  0
 12 13  1  0
 13 14  2  0
 14 15  1  0
 15 16  1  0
 15 17  2  0
 17 18  1  0
 18 19  1  0
 18 20  2  0
 10 21  1  0
 21 22  1  0
 22 23  2  0
 23 24  1  0
 24 25  2  0
 25 26  1  0
 25 27  1  0
 27 28  2  0
 21 29  2  0
  7 30  1  0
 30 31  2  0
 31  4  1  0
 29  8  1  0
 20 13  1  0
 28 22  1  0
  5 32  1  0
  6 33  1  0
  9 34  1  0
 11 35  1  0
 11 36  1  0
 12 37  1  0
 14 38  1  0
 17 39  1  0
 20 40  1  0
 23 41  1  0
 24 42  1  0
 27 43  1  0
 28 44  1  0
 30 45  1  0
 31 46  1  0
M  CHG  1   3  -1
M  END
>  <meeko>  (3) 
{"is_sidechain": [false], "free_energy": -7.264, "intermolecular_energy": -9.943, "internal_energy": -1.085}

> <PREPARED_BY>
siam chowdhury
Computational and Medicinal Chemistry
[Dr. Alam's Research Team] www.alamresearch.org
Arkansas State University

$$$$
20sa23_out
     RDKit          3D

 46 49  0  0  0  0  0  0  0  0999 V2000
    5.3580   14.0170   32.4990 O   0  0  0  0  0  0  0  0  0  0  0  0
    6.2770   14.1660   31.7170 C   0  0  0  0  0  0  0  0  0  0  0  0
    6.1720   13.9260   30.3920 O   0  0  0  0  0  0  0  0  0  0  0  0
    7.6300   14.6060   32.1360 C   0  0  0  0  0  0  0  0  0  0  0  0
    7.9830   14.5120   33.4880 C   0  0  0  0  0  0  0  0  0  0  0  0
    9.2400   14.9520   33.9230 C   0  0  0  0  0  0  0  0  0  0  0  0
   10.1460   15.5040   33.0050 C   0  0  0  0  0  0  0  0  0  0  0  0
   11.4060   15.9990   33.4500 N   0  0  0  0  0  0  0  0  0  0  0  0
   12.2030   16.9040   32.7960 C   0  0  0  0  0  0  0  0  0  0  0  0
   13.2790   17.1700   33.6100 C   0  0  0  0  0  0  0  0  0  0  0  0
   14.3410   18.1800   33.3430 C   0  0  0  0  0  0  0  0  0  0  0  0
   14.5960   19.0990   34.4530 N   0  0  0  0  0  0  0  0  0  0  0  0
   14.2180   20.4370   34.2940 C   0  0  0  0  0  0  0  0  0  0  0  0
   13.9610   21.2110   35.4340 C   0  0  0  0  0  0  0  0  0  0  0  0
   13.5490   22.5410   35.3180 C   0  0  0  0  0  0  0  0  0  0  0  0
   13.2890   23.4780   36.7370 Cl  0  0  0  0  0  0  0  0  0  0  0  0
   13.3490   23.1170   34.0690 C   0  0  0  0  0  0  0  0  0  0  0  0
   13.5430   22.3390   32.9340 C   0  0  0  0  0  0  0  0  0  0  0  0
   13.2720   23.0170   31.3750 Cl  0  0  0  0  0  0  0  0  0  0  0  0
   13.9570   21.0110   33.0430 C   0  0  0  0  0  0  0  0  0  0  0  0
   13.1110   16.3060   34.7320 C   0  0  0  0  0  0  0  0  0  0  0  0
   14.0070   16.1300   35.8850 C   0  0  0  0  0  0  0  0  0  0  0  0
   13.7290   16.7470   37.1180 C   0  0  0  0  0  0  0  0  0  0  0  0
   14.5620   16.5580   38.2230 C   0  0  0  0  0  0  0  0  0  0  0  0
   15.6940   15.7680   38.0970 C   0  0  0  0  0  0  0  0  0  0  0  0
   16.4970   15.5920   39.1530 F   0  0  0  0  0  0  0  0  0  0  0  0
   16.0060   15.1640   36.8830 C   0  0  0  0  0  0  0  0  0  0  0  0
   15.1650   15.3440   35.7800 C   0  0  0  0  0  0  0  0  0  0  0  0
   11.9490   15.6330   34.6370 N   0  0  0  0  0  0  0  0  0  0  0  0
    9.7830   15.5970   31.6510 C   0  0  0  0  0  0  0  0  0  0  0  0
    8.5280   15.1600   31.2200 C   0  0  0  0  0  0  0  0  0  0  0  0
    7.2699   14.0907   34.2119 H   0  0  0  0  0  0  0  0  0  0  0  0
    9.5165   14.8647   34.9841 H   0  0  0  0  0  0  0  0  0  0  0  0
   12.0157   17.3375   31.8025 H   0  0  0  0  0  0  0  0  0  0  0  0
   15.2754   17.6450   33.1180 H   0  0  0  0  0  0  0  0  0  0  0  0
   13.9849   18.7945   32.5030 H   0  0  0  0  0  0  0  0  0  0  0  0
   15.0190   18.7860   35.2850 H   0  0  0  0  0  0  0  0  0  0  0  0
   14.0852   20.7658   36.4322 H   0  0  0  0  0  0  0  0  0  0  0  0
   13.0427   24.1698   33.9805 H   0  0  0  0  0  0  0  0  0  0  0  0
   14.0803   20.4056   32.1329 H   0  0  0  0  0  0  0  0  0  0  0  0
   12.8409   17.3890   37.2136 H   0  0  0  0  0  0  0  0  0  0  0  0
   14.3216   17.0324   39.1859 H   0  0  0  0  0  0  0  0  0  0  0  0
   16.9117   14.5465   36.7909 H   0  0  0  0  0  0  0  0  0  0  0  0
   15.4135   14.8651   34.8214 H   0  0  0  0  0  0  0  0  0  0  0  0
   10.4932   16.0176   30.9238 H   0  0  0  0  0  0  0  0  0  0  0  0
    8.2470   15.2520   30.1605 H   0  0  0  0  0  0  0  0  0  0  0  0
  1  2  2  0
  2  3  1  0
  2  4  1  0
  4  5  2  0
  5  6  1  0
  6  7  2  0
  7  8  1  0
  8  9  1  0
  9 10  2  0
 10 11  1  0
 11 12  1  0
 12 13  1  0
 13 14  2  0
 14 15  1  0
 15 16  1  0
 15 17  2  0
 17 18  1  0
 18 19  1  0
 18 20  2  0
 10 21  1  0
 21 22  1  0
 22 23  2  0
 23 24  1  0
 24 25  2  0
 25 26  1  0
 25 27  1  0
 27 28  2  0
 21 29  2  0
  7 30  1  0
 30 31  2  0
 31  4  1  0
 29  8  1  0
 20 13  1  0
 28 22  1  0
  5 32  1  0
  6 33  1  0
  9 34  1  0
 11 35  1  0
 11 36  1  0
 12 37  1  0
 14 38  1  0
 17 39  1  0
 20 40  1  0
 23 41  1  0
 24 42  1  0
 27 43  1  0
 28 44  1  0
 30 45  1  0
 31 46  1  0
M  CHG  1   3  -1
M  END
>  <meeko>  (4) 
{"is_sidechain": [false], "free_energy": -7.2, "intermolecular_energy": -9.854, "internal_energy": -1.088}

> <PREPARED_BY>
siam chowdhury
Computational and Medicinal Chemistry
[Dr. Alam's Research Team] www.alamresearch.org
Arkansas State University

$$$$
20sa23_out
     RDKit          3D

 46 49  0  0  0  0  0  0  0  0999 V2000
   15.3100   17.8840   33.4170 O   0  0  0  0  0  0  0  0  0  0  0  0
   14.6990   18.9300   33.5230 C   0  0  0  0  0  0  0  0  0  0  0  0
   15.0220   19.8940   34.4120 O   0  0  0  0  0  0  0  0  0  0  0  0
   13.5090   19.2570   32.6990 C   0  0  0  0  0  0  0  0  0  0  0  0
   12.6460   18.2220   32.3170 C   0  0  0  0  0  0  0  0  0  0  0  0
   11.5330   18.4910   31.5110 C   0  0  0  0  0  0  0  0  0  0  0  0
   11.2860   19.7990   31.0680 C   0  0  0  0  0  0  0  0  0  0  0  0
   10.1840   20.0700   30.2070 N   0  0  0  0  0  0  0  0  0  0  0  0
   10.1750   20.9330   29.1410 C   0  0  0  0  0  0  0  0  0  0  0  0
    8.9460   20.8280   28.5340 C   0  0  0  0  0  0  0  0  0  0  0  0
    8.5390   21.5070   27.2730 C   0  0  0  0  0  0  0  0  0  0  0  0
    7.7970   22.7540   27.4690 N   0  0  0  0  0  0  0  0  0  0  0  0
    6.4090   22.6710   27.6210 C   0  0  0  0  0  0  0  0  0  0  0  0
    5.8410   22.9890   28.8620 C   0  0  0  0  0  0  0  0  0  0  0  0
    4.4620   22.8870   29.0650 C   0  0  0  0  0  0  0  0  0  0  0  0
    3.7900   23.3300   30.5860 Cl  0  0  0  0  0  0  0  0  0  0  0  0
    3.6250   22.4330   28.0520 C   0  0  0  0  0  0  0  0  0  0  0  0
    4.1870   22.0590   26.8380 C   0  0  0  0  0  0  0  0  0  0  0  0
    3.1790   21.4630   25.5760 Cl  0  0  0  0  0  0  0  0  0  0  0  0
    5.5630   22.1600   26.6280 C   0  0  0  0  0  0  0  0  0  0  0  0
    8.2100   19.9230   29.3560 C   0  0  0  0  0  0  0  0  0  0  0  0
    6.8100   19.4950   29.2070 C   0  0  0  0  0  0  0  0  0  0  0  0
    6.3480   18.9410   28.0000 C   0  0  0  0  0  0  0  0  0  0  0  0
    5.0270   18.5070   27.8660 C   0  0  0  0  0  0  0  0  0  0  0  0
    4.1510   18.6460   28.9320 C   0  0  0  0  0  0  0  0  0  0  0  0
    2.8830   18.2370   28.8020 F   0  0  0  0  0  0  0  0  0  0  0  0
    4.5750   19.2120   30.1300 C   0  0  0  0  0  0  0  0  0  0  0  0
    5.9020   19.6360   30.2670 C   0  0  0  0  0  0  0  0  0  0  0  0
    8.9900   19.4420   30.3420 N   0  0  0  0  0  0  0  0  0  0  0  0
   12.1580   20.8310   31.4540 C   0  0  0  0  0  0  0  0  0  0  0  0
   13.2690   20.5600   32.2560 C   0  0  0  0  0  0  0  0  0  0  0  0
   12.8435   17.1930   32.6518 H   0  0  0  0  0  0  0  0  0  0  0  0
   10.8518   17.6761   31.2250 H   0  0  0  0  0  0  0  0  0  0  0  0
   11.0006   21.5894   28.8287 H   0  0  0  0  0  0  0  0  0  0  0  0
    9.4476   21.7345   26.6962 H   0  0  0  0  0  0  0  0  0  0  0  0
    7.8603   20.8170   26.7502 H   0  0  0  0  0  0  0  0  0  0  0  0
    8.2600   23.6220   27.4930 H   0  0  0  0  0  0  0  0  0  0  0  0
    6.4883   23.3229   29.6863 H   0  0  0  0  0  0  0  0  0  0  0  0
    2.5380   22.3711   28.2089 H   0  0  0  0  0  0  0  0  0  0  0  0
    5.9898   21.8334   25.6682 H   0  0  0  0  0  0  0  0  0  0  0  0
    7.0375   18.8479   27.1480 H   0  0  0  0  0  0  0  0  0  0  0  0
    4.6842   18.0583   26.9220 H   0  0  0  0  0  0  0  0  0  0  0  0
    3.8700   19.3259   30.9666 H   0  0  0  0  0  0  0  0  0  0  0  0
    6.2359   20.0839   31.2146 H   0  0  0  0  0  0  0  0  0  0  0  0
   11.9640   21.8615   31.1216 H   0  0  0  0  0  0  0  0  0  0  0  0
   13.9548   21.3723   32.5387 H   0  0  0  0  0  0  0  0  0  0  0  0
  1  2  2  0
  2  3  1  0
  2  4  1  0
  4  5  2  0
  5  6  1  0
  6  7  2  0
  7  8  1  0
  8  9  1  0
  9 10  2  0
 10 11  1  0
 11 12  1  0
 12 13  1  0
 13 14  2  0
 14 15  1  0
 15 16  1  0
 15 17  2  0
 17 18  1  0
 18 19  1  0
 18 20  2  0
 10 21  1  0
 21 22  1  0
 22 23  2  0
 23 24  1  0
 24 25  2  0
 25 26  1  0
 25 27  1  0
 27 28  2  0
 21 29  2  0
  7 30  1  0
 30 31  2  0
 31  4  1  0
 29  8  1  0
 20 13  1  0
 28 22  1  0
  5 32  1  0
  6 33  1  0
  9 34  1  0
 11 35  1  0
 11 36  1  0
 12 37  1  0
 14 38  1  0
 17 39  1  0
 20 40  1  0
 23 41  1  0
 24 42  1  0
 27 43  1  0
 28 44  1  0
 30 45  1  0
 31 46  1  0
M  CHG  1   3  -1
M  END
>  <meeko>  (5) 
{"is_sidechain": [false], "free_energy": -7.135, "intermolecular_energy": -8.619, "internal_energy": -2.235}

> <PREPARED_BY>
siam chowdhury
Computational and Medicinal Chemistry
[Dr. Alam's Research Team] www.alamresearch.org
Arkansas State University

$$$$
20sa23_out
     RDKit          3D

 46 49  0  0  0  0  0  0  0  0999 V2000
   15.6270   19.6490   33.8440 O   0  0  0  0  0  0  0  0  0  0  0  0
   14.7950   18.8320   33.5000 C   0  0  0  0  0  0  0  0  0  0  0  0
   14.8800   17.5160   33.7910 O   0  0  0  0  0  0  0  0  0  0  0  0
   13.5990   19.1860   32.6970 C   0  0  0  0  0  0  0  0  0  0  0  0
   12.7050   18.1720   32.3300 C   0  0  0  0  0  0  0  0  0  0  0  0
   11.5850   18.4670   31.5430 C   0  0  0  0  0  0  0  0  0  0  0  0
   11.3620   19.7800   31.1040 C   0  0  0  0  0  0  0  0  0  0  0  0
   10.2520   20.0770   30.2610 N   0  0  0  0  0  0  0  0  0  0  0  0
   10.2260   20.9880   29.2370 C   0  0  0  0  0  0  0  0  0  0  0  0
    8.9950   20.8960   28.6320 C   0  0  0  0  0  0  0  0  0  0  0  0
    8.5730   21.6280   27.4050 C   0  0  0  0  0  0  0  0  0  0  0  0
    7.7660   22.8220   27.6610 N   0  0  0  0  0  0  0  0  0  0  0  0
    6.3880   22.6530   27.8400 C   0  0  0  0  0  0  0  0  0  0  0  0
    5.6110   22.2130   26.7600 C   0  0  0  0  0  0  0  0  0  0  0  0
    4.2270   22.0650   26.8870 C   0  0  0  0  0  0  0  0  0  0  0  0
    3.3080   21.4760   25.5570 Cl  0  0  0  0  0  0  0  0  0  0  0  0
    3.5840   22.3850   28.0770 C   0  0  0  0  0  0  0  0  0  0  0  0
    4.3390   22.8790   29.1330 C   0  0  0  0  0  0  0  0  0  0  0  0
    3.5650   23.3150   30.6080 Cl  0  0  0  0  0  0  0  0  0  0  0  0
    5.7210   23.0280   29.0140 C   0  0  0  0  0  0  0  0  0  0  0  0
    8.2750   19.9450   29.4140 C   0  0  0  0  0  0  0  0  0  0  0  0
    6.8800   19.5060   29.2520 C   0  0  0  0  0  0  0  0  0  0  0  0
    5.9540   19.6410   30.3020 C   0  0  0  0  0  0  0  0  0  0  0  0
    4.6210   19.2540   30.1410 C   0  0  0  0  0  0  0  0  0  0  0  0
    4.2100   18.7050   28.9360 C   0  0  0  0  0  0  0  0  0  0  0  0
    2.9360   18.3250   28.7840 F   0  0  0  0  0  0  0  0  0  0  0  0
    5.1110   18.5380   27.8890 C   0  0  0  0  0  0  0  0  0  0  0  0
    6.4420   18.9370   28.0460 C   0  0  0  0  0  0  0  0  0  0  0  0
    9.0660   19.4290   30.3720 N   0  0  0  0  0  0  0  0  0  0  0  0
   12.2650   20.7910   31.4740 C   0  0  0  0  0  0  0  0  0  0  0  0
   13.3820   20.4950   32.2570 C   0  0  0  0  0  0  0  0  0  0  0  0
   12.8837   17.1386   32.6618 H   0  0  0  0  0  0  0  0  0  0  0  0
   10.8798   17.6685   31.2690 H   0  0  0  0  0  0  0  0  0  0  0  0
   11.0416   21.6686   28.9514 H   0  0  0  0  0  0  0  0  0  0  0  0
    9.4774   21.9345   26.8590 H   0  0  0  0  0  0  0  0  0  0  0  0
    7.9385   20.9375   26.8300 H   0  0  0  0  0  0  0  0  0  0  0  0
    8.1780   23.7150   27.7050 H   0  0  0  0  0  0  0  0  0  0  0  0
    6.0963   21.9812   25.8004 H   0  0  0  0  0  0  0  0  0  0  0  0
    2.4973   22.2495   28.1805 H   0  0  0  0  0  0  0  0  0  0  0  0
    6.2954   23.4459   29.8539 H   0  0  0  0  0  0  0  0  0  0  0  0
    6.2843   20.0577   31.2649 H   0  0  0  0  0  0  0  0  0  0  0  0
    3.9030   19.3840   30.9642 H   0  0  0  0  0  0  0  0  0  0  0  0
    4.7771   18.0932   26.9400 H   0  0  0  0  0  0  0  0  0  0  0  0
    7.1523   18.8037   27.2167 H   0  0  0  0  0  0  0  0  0  0  0  0
   12.0900   21.8255   31.1435 H   0  0  0  0  0  0  0  0  0  0  0  0
   14.0910   21.2913   32.5276 H   0  0  0  0  0  0  0  0  0  0  0  0
  1  2  2  0
  2  3  1  0
  2  4  1  0
  4  5  2  0
  5  6  1  0
  6  7  2  0
  7  8  1  0
  8  9  1  0
  9 10  2  0
 10 11  1  0
 11 12  1  0
 12 13  1  0
 13 14  2  0
 14 15  1  0
 15 16  1  0
 15 17  2  0
 17 18  1  0
 18 19  1  0
 18 20  2  0
 10 21  1  0
 21 22  1  0
 22 23  2  0
 23 24  1  0
 24 25  2  0
 25 26  1  0
 25 27  1  0
 27 28  2  0
 21 29  2  0
  7 30  1  0
 30 31  2  0
 31  4  1  0
 29  8  1  0
 20 13  1  0
 28 22  1  0
  5 32  1  0
  6 33  1  0
  9 34  1  0
 11 35  1  0
 11 36  1  0
 12 37  1  0
 14 38  1  0
 17 39  1  0
 20 40  1  0
 23 41  1  0
 24 42  1  0
 27 43  1  0
 28 44  1  0
 30 45  1  0
 31 46  1  0
M  CHG  1   3  -1
M  END
>  <meeko>  (6) 
{"is_sidechain": [false], "free_energy": -7.088, "intermolecular_energy": -8.545, "internal_energy": -2.245}

> <PREPARED_BY>
siam chowdhury
Computational and Medicinal Chemistry
[Dr. Alam's Research Team] www.alamresearch.org
Arkansas State University

$$$$
20sa23_out
     RDKit          3D

 46 49  0  0  0  0  0  0  0  0999 V2000
   14.4610   17.1950   34.2710 O   0  0  0  0  0  0  0  0  0  0  0  0
   14.5890   18.0810   33.4480 C   0  0  0  0  0  0  0  0  0  0  0  0
   15.7720   18.6640   33.1600 O   0  0  0  0  0  0  0  0  0  0  0  0
   13.4490   18.6420   32.6810 C   0  0  0  0  0  0  0  0  0  0  0  0
   12.3860   17.7970   32.3350 C   0  0  0  0  0  0  0  0  0  0  0  0
   11.3110   18.2860   31.5810 C   0  0  0  0  0  0  0  0  0  0  0  0
   11.3030   19.6230   31.1560 C   0  0  0  0  0  0  0  0  0  0  0  0
   10.2370   20.1120   30.3470 N   0  0  0  0  0  0  0  0  0  0  0  0
   10.3240   21.0850   29.3840 C   0  0  0  0  0  0  0  0  0  0  0  0
    9.0890   21.1890   28.7880 C   0  0  0  0  0  0  0  0  0  0  0  0
    8.7600   22.0480   27.6170 C   0  0  0  0  0  0  0  0  0  0  0  0
    8.5550   21.3150   26.3670 N   0  0  0  0  0  0  0  0  0  0  0  0
    7.2400   21.0350   25.9810 C   0  0  0  0  0  0  0  0  0  0  0  0
    6.2630   22.0310   26.1240 C   0  0  0  0  0  0  0  0  0  0  0  0
    4.9310   21.7810   25.7810 C   0  0  0  0  0  0  0  0  0  0  0  0
    3.7660   23.0390   25.9230 Cl  0  0  0  0  0  0  0  0  0  0  0  0
    4.5370   20.5290   25.3250 C   0  0  0  0  0  0  0  0  0  0  0  0
    5.4870   19.5190   25.2370 C   0  0  0  0  0  0  0  0  0  0  0  0
    5.0210   17.9490   24.7060 Cl  0  0  0  0  0  0  0  0  0  0  0  0
    6.8190   19.7620   25.5750 C   0  0  0  0  0  0  0  0  0  0  0  0
    8.2570   20.2870   29.5150 C   0  0  0  0  0  0  0  0  0  0  0  0
    6.8170   20.0400   29.3410 C   0  0  0  0  0  0  0  0  0  0  0  0
    5.8780   21.0670   29.5440 C   0  0  0  0  0  0  0  0  0  0  0  0
    4.5120   20.8430   29.3500 C   0  0  0  0  0  0  0  0  0  0  0  0
    4.0740   19.5820   28.9760 C   0  0  0  0  0  0  0  0  0  0  0  0
    2.7650   19.3650   28.7990 F   0  0  0  0  0  0  0  0  0  0  0  0
    4.9780   18.5420   28.7920 C   0  0  0  0  0  0  0  0  0  0  0  0
    6.3470   18.7700   28.9740 C   0  0  0  0  0  0  0  0  0  0  0  0
    8.9790   19.6130   30.4290 N   0  0  0  0  0  0  0  0  0  0  0  0
   12.3740   20.4620   31.5060 C   0  0  0  0  0  0  0  0  0  0  0  0
   13.4460   19.9720   32.2550 C   0  0  0  0  0  0  0  0  0  0  0  0
   12.3956   16.7452   32.6568 H   0  0  0  0  0  0  0  0  0  0  0  0
   10.4733   17.6216   31.3223 H   0  0  0  0  0  0  0  0  0  0  0  0
   11.2184   21.6745   29.1341 H   0  0  0  0  0  0  0  0  0  0  0  0
    7.8379   22.6026   27.8456 H   0  0  0  0  0  0  0  0  0  0  0  0
    9.6275   22.7050   27.4565 H   0  0  0  0  0  0  0  0  0  0  0  0
    9.3180   21.0270   25.8160 H   0  0  0  0  0  0  0  0  0  0  0  0
    6.5482   23.0206   26.5106 H   0  0  0  0  0  0  0  0  0  0  0  0
    3.4917   20.3409   25.0388 H   0  0  0  0  0  0  0  0  0  0  0  0
    7.5496   18.9414   25.5218 H   0  0  0  0  0  0  0  0  0  0  0  0
    6.2239   22.0621   29.8604 H   0  0  0  0  0  0  0  0  0  0  0  0
    3.7903   21.6608   29.4929 H   0  0  0  0  0  0  0  0  0  0  0  0
    4.6186   17.5430   28.5043 H   0  0  0  0  0  0  0  0  0  0  0  0
    7.0609   17.9460   28.8280 H   0  0  0  0  0  0  0  0  0  0  0  0
   12.3682   21.5147   31.1871 H   0  0  0  0  0  0  0  0  0  0  0  0
   14.2875   20.6332   32.5093 H   0  0  0  0  0  0  0  0  0  0  0  0
  1  2  2  0
  2  3  1  0
  2  4  1  0
  4  5  2  0
  5  6  1  0
  6  7  2  0
  7  8  1  0
  8  9  1  0
  9 10  2  0
 10 11  1  0
 11 12  1  0
 12 13  1  0
 13 14  2  0
 14 15  1  0
 15 16  1  0
 15 17  2  0
 17 18  1  0
 18 19  1  0
 18 20  2  0
 10 21  1  0
 21 22  1  0
 22 23  2  0
 23 24  1  0
 24 25  2  0
 25 26  1  0
 25 27  1  0
 27 28  2  0
 21 29  2  0
  7 30  1  0
 30 31  2  0
 31  4  1  0
 29  8  1  0
 20 13  1  0
 28 22  1  0
  5 32  1  0
  6 33  1  0
  9 34  1  0
 11 35  1  0
 11 36  1  0
 12 37  1  0
 14 38  1  0
 17 39  1  0
 20 40  1  0
 23 41  1  0
 24 42  1  0
 27 43  1  0
 28 44  1  0
 30 45  1  0
 31 46  1  0
M  CHG  1   3  -1
M  END
>  <meeko>  (7) 
{"is_sidechain": [false], "free_energy": -6.911, "intermolecular_energy": -8.253, "internal_energy": -2.299}

> <PREPARED_BY>
siam chowdhury
Computational and Medicinal Chemistry
[Dr. Alam's Research Team] www.alamresearch.org
Arkansas State University

$$$$
20sa23_out
     RDKit          3D

 46 49  0  0  0  0  0  0  0  0999 V2000
   15.6750   18.3870   33.2420 O   0  0  0  0  0  0  0  0  0  0  0  0
   14.5140   18.1080   33.4720 C   0  0  0  0  0  0  0  0  0  0  0  0
   14.1320   17.2520   34.4430 O   0  0  0  0  0  0  0  0  0  0  0  0
   13.3810   18.6630   32.6910 C   0  0  0  0  0  0  0  0  0  0  0  0
   12.3340   17.8100   32.3190 C   0  0  0  0  0  0  0  0  0  0  0  0
   11.2670   18.2930   31.5510 C   0  0  0  0  0  0  0  0  0  0  0  0
   11.2510   19.6330   31.1370 C   0  0  0  0  0  0  0  0  0  0  0  0
   10.1930   20.1180   30.3140 N   0  0  0  0  0  0  0  0  0  0  0  0
   10.2960   21.0660   29.3280 C   0  0  0  0  0  0  0  0  0  0  0  0
    9.0640   21.1720   28.7270 C   0  0  0  0  0  0  0  0  0  0  0  0
    8.7490   22.0070   27.5350 C   0  0  0  0  0  0  0  0  0  0  0  0
    8.4690   21.2430   26.3180 N   0  0  0  0  0  0  0  0  0  0  0  0
    7.1310   20.9850   26.0020 C   0  0  0  0  0  0  0  0  0  0  0  0
    6.7730   19.7060   25.5530 C   0  0  0  0  0  0  0  0  0  0  0  0
    5.4530   19.4170   25.1950 C   0  0  0  0  0  0  0  0  0  0  0  0
    5.0370   17.8240   24.6950 Cl  0  0  0  0  0  0  0  0  0  0  0  0
    4.4720   20.4010   25.2400 C   0  0  0  0  0  0  0  0  0  0  0  0
    4.8300   21.6860   25.6260 C   0  0  0  0  0  0  0  0  0  0  0  0
    3.6430   22.9320   25.6600 Cl  0  0  0  0  0  0  0  0  0  0  0  0
    6.1460   21.9810   25.9870 C   0  0  0  0  0  0  0  0  0  0  0  0
    8.2180   20.3000   29.4740 C   0  0  0  0  0  0  0  0  0  0  0  0
    6.7750   20.0690   29.3020 C   0  0  0  0  0  0  0  0  0  0  0  0
    5.8490   21.1120   29.4870 C   0  0  0  0  0  0  0  0  0  0  0  0
    4.4810   20.9030   29.2960 C   0  0  0  0  0  0  0  0  0  0  0  0
    4.0260   19.6420   28.9430 C   0  0  0  0  0  0  0  0  0  0  0  0
    2.7150   19.4390   28.7670 F   0  0  0  0  0  0  0  0  0  0  0  0
    4.9170   18.5870   28.7760 C   0  0  0  0  0  0  0  0  0  0  0  0
    6.2880   18.8000   28.9550 C   0  0  0  0  0  0  0  0  0  0  0  0
    8.9280   19.6390   30.4050 N   0  0  0  0  0  0  0  0  0  0  0  0
   12.3070   20.4810   31.5120 C   0  0  0  0  0  0  0  0  0  0  0  0
   13.3700   19.9970   32.2760 C   0  0  0  0  0  0  0  0  0  0  0  0
   12.3499   16.7555   32.6316 H   0  0  0  0  0  0  0  0  0  0  0  0
   10.4415   17.6214   31.2725 H   0  0  0  0  0  0  0  0  0  0  0  0
   11.1990   21.6369   29.0661 H   0  0  0  0  0  0  0  0  0  0  0  0
    7.8653   22.6193   27.7677 H   0  0  0  0  0  0  0  0  0  0  0  0
    9.6458   22.6094   27.3280 H   0  0  0  0  0  0  0  0  0  0  0  0
    9.1990   20.9220   25.7400 H   0  0  0  0  0  0  0  0  0  0  0  0
    7.5399   18.9206   25.4816 H   0  0  0  0  0  0  0  0  0  0  0  0
    3.4307   20.1659   24.9746 H   0  0  0  0  0  0  0  0  0  0  0  0
    6.4135   23.0114   26.2639 H   0  0  0  0  0  0  0  0  0  0  0  0
    6.2078   22.1077   29.7867 H   0  0  0  0  0  0  0  0  0  0  0  0
    3.7703   21.7327   29.4247 H   0  0  0  0  0  0  0  0  0  0  0  0
    4.5447   17.5883   28.5040 H   0  0  0  0  0  0  0  0  0  0  0  0
    6.9909   17.9644   28.8224 H   0  0  0  0  0  0  0  0  0  0  0  0
   12.2957   21.5359   31.2005 H   0  0  0  0  0  0  0  0  0  0  0  0
   14.1989   20.6657   32.5513 H   0  0  0  0  0  0  0  0  0  0  0  0
  1  2  2  0
  2  3  1  0
  2  4  1  0
  4  5  2  0
  5  6  1  0
  6  7  2  0
  7  8  1  0
  8  9  1  0
  9 10  2  0
 10 11  1  0
 11 12  1  0
 12 13  1  0
 13 14  2  0
 14 15  1  0
 15 16  1  0
 15 17  2  0
 17 18  1  0
 18 19  1  0
 18 20  2  0
 10 21  1  0
 21 22  1  0
 22 23  2  0
 23 24  1  0
 24 25  2  0
 25 26  1  0
 25 27  1  0
 27 28  2  0
 21 29  2  0
  7 30  1  0
 30 31  2  0
 31  4  1  0
 29  8  1  0
 20 13  1  0
 28 22  1  0
  5 32  1  0
  6 33  1  0
  9 34  1  0
 11 35  1  0
 11 36  1  0
 12 37  1  0
 14 38  1  0
 17 39  1  0
 20 40  1  0
 23 41  1  0
 24 42  1  0
 27 43  1  0
 28 44  1  0
 30 45  1  0
 31 46  1  0
M  CHG  1   3  -1
M  END
>  <meeko>  (8) 
{"is_sidechain": [false], "free_energy": -6.89, "intermolecular_energy": -8.304, "internal_energy": -2.218}

> <PREPARED_BY>
siam chowdhury
Computational and Medicinal Chemistry
[Dr. Alam's Research Team] www.alamresearch.org
Arkansas State University

$$$$
20sa23_out
     RDKit          3D

 46 49  0  0  0  0  0  0  0  0999 V2000
    5.8920   13.7710   30.5560 O   0  0  0  0  0  0  0  0  0  0  0  0
    6.1610   14.1140   31.6910 C   0  0  0  0  0  0  0  0  0  0  0  0
    5.2560   14.1490   32.6920 O   0  0  0  0  0  0  0  0  0  0  0  0
    7.5160   14.5570   32.1000 C   0  0  0  0  0  0  0  0  0  0  0  0
    7.8540   14.5340   33.4600 C   0  0  0  0  0  0  0  0  0  0  0  0
    9.1130   14.9780   33.8830 C   0  0  0  0  0  0  0  0  0  0  0  0
   10.0370   15.4640   32.9470 C   0  0  0  0  0  0  0  0  0  0  0  0
   11.3000   15.9650   33.3780 N   0  0  0  0  0  0  0  0  0  0  0  0
   12.0750   16.8910   32.7280 C   0  0  0  0  0  0  0  0  0  0  0  0
   13.1630   17.1530   33.5260 C   0  0  0  0  0  0  0  0  0  0  0  0
   14.2090   18.1790   33.2590 C   0  0  0  0  0  0  0  0  0  0  0  0
   14.8300   18.7380   34.4610 N   0  0  0  0  0  0  0  0  0  0  0  0
   14.3960   19.9940   34.8980 C   0  0  0  0  0  0  0  0  0  0  0  0
   14.2150   20.2110   36.2710 C   0  0  0  0  0  0  0  0  0  0  0  0
   13.7500   21.4420   36.7450 C   0  0  0  0  0  0  0  0  0  0  0  0
   13.5860   21.6920   38.4400 Cl  0  0  0  0  0  0  0  0  0  0  0  0
   13.4220   22.4650   35.8650 C   0  0  0  0  0  0  0  0  0  0  0  0
   13.5400   22.2380   34.5000 C   0  0  0  0  0  0  0  0  0  0  0  0
   13.1090   23.4760   33.3850 Cl  0  0  0  0  0  0  0  0  0  0  0  0
   14.0050   21.0130   34.0190 C   0  0  0  0  0  0  0  0  0  0  0  0
   13.0240   16.2650   34.6340 C   0  0  0  0  0  0  0  0  0  0  0  0
   13.9440   16.0770   35.7680 C   0  0  0  0  0  0  0  0  0  0  0  0
   13.6660   16.6420   37.0250 C   0  0  0  0  0  0  0  0  0  0  0  0
   14.5220   16.4400   38.1110 C   0  0  0  0  0  0  0  0  0  0  0  0
   15.6760   15.6910   37.9400 C   0  0  0  0  0  0  0  0  0  0  0  0
   16.5010   15.5040   38.9770 F   0  0  0  0  0  0  0  0  0  0  0  0
   15.9880   15.1400   36.7010 C   0  0  0  0  0  0  0  0  0  0  0  0
   15.1240   15.3330   35.6170 C   0  0  0  0  0  0  0  0  0  0  0  0
   11.8680   15.5820   34.5480 N   0  0  0  0  0  0  0  0  0  0  0  0
    9.6890   15.4860   31.5860 C   0  0  0  0  0  0  0  0  0  0  0  0
    8.4330   15.0450   31.1660 C   0  0  0  0  0  0  0  0  0  0  0  0
    7.1269   14.1655   34.1986 H   0  0  0  0  0  0  0  0  0  0  0  0
    9.3772   14.9455   34.9503 H   0  0  0  0  0  0  0  0  0  0  0  0
   11.8644   17.3418   31.7470 H   0  0  0  0  0  0  0  0  0  0  0  0
   14.9977   17.7151   32.6485 H   0  0  0  0  0  0  0  0  0  0  0  0
   13.7062   19.0138   32.7488 H   0  0  0  0  0  0  0  0  0  0  0  0
   15.5310   18.2450   34.9470 H   0  0  0  0  0  0  0  0  0  0  0  0
   14.4412   19.4041   36.9836 H   0  0  0  0  0  0  0  0  0  0  0  0
   13.0748   23.4381   36.2425 H   0  0  0  0  0  0  0  0  0  0  0  0
   14.0655   20.8449   32.9336 H   0  0  0  0  0  0  0  0  0  0  0  0
   12.7605   17.2527   37.1557 H   0  0  0  0  0  0  0  0  0  0  0  0
   14.2820   16.8719   39.0938 H   0  0  0  0  0  0  0  0  0  0  0  0
   16.9106   14.5547   36.5739 H   0  0  0  0  0  0  0  0  0  0  0  0
   15.3722   14.8975   34.6379 H   0  0  0  0  0  0  0  0  0  0  0  0
   10.4132   15.8542   30.8444 H   0  0  0  0  0  0  0  0  0  0  0  0
    8.1653   15.0817   30.0997 H   0  0  0  0  0  0  0  0  0  0  0  0
  1  2  2  0
  2  3  1  0
  2  4  1  0
  4  5  2  0
  5  6  1  0
  6  7  2  0
  7  8  1  0
  8  9  1  0
  9 10  2  0
 10 11  1  0
 11 12  1  0
 12 13  1  0
 13 14  2  0
 14 15  1  0
 15 16  1  0
 15 17  2  0
 17 18  1  0
 18 19  1  0
 18 20  2  0
 10 21  1  0
 21 22  1  0
 22 23  2  0
 23 24  1  0
 24 25  2  0
 25 26  1  0
 25 27  1  0
 27 28  2  0
 21 29  2  0
  7 30  1  0
 30 31  2  0
 31  4  1  0
 29  8  1  0
 20 13  1  0
 28 22  1  0
  5 32  1  0
  6 33  1  0
  9 34  1  0
 11 35  1  0
 11 36  1  0
 12 37  1  0
 14 38  1  0
 17 39  1  0
 20 40  1  0
 23 41  1  0
 24 42  1  0
 27 43  1  0
 28 44  1  0
 30 45  1  0
 31 46  1  0
M  CHG  1   3  -1
M  END
>  <meeko>  (9) 
{"is_sidechain": [false], "free_energy": -6.748, "intermolecular_energy": -9.217, "internal_energy": -1.114}

> <PREPARED_BY>
siam chowdhury
Computational and Medicinal Chemistry
[Dr. Alam's Research Team] www.alamresearch.org
Arkansas State University

$$$$
20sa23_out
     RDKit          3D

 46 49  0  0  0  0  0  0  0  0999 V2000
    1.3850   15.4640   28.8480 O   0  0  0  0  0  0  0  0  0  0  0  0
    1.9740   16.0530   29.7340 C   0  0  0  0  0  0  0  0  0  0  0  0
    1.5760   16.0440   31.0250 O   0  0  0  0  0  0  0  0  0  0  0  0
    3.1870   16.8710   29.4920 C   0  0  0  0  0  0  0  0  0  0  0  0
    4.4460   16.2770   29.6470 C   0  0  0  0  0  0  0  0  0  0  0  0
    5.6110   17.0310   29.4600 C   0  0  0  0  0  0  0  0  0  0  0  0
    5.5220   18.3920   29.1320 C   0  0  0  0  0  0  0  0  0  0  0  0
    6.7030   19.1760   28.9900 N   0  0  0  0  0  0  0  0  0  0  0  0
    7.6730   19.3680   29.9410 C   0  0  0  0  0  0  0  0  0  0  0  0
    8.6740   20.1150   29.3650 C   0  0  0  0  0  0  0  0  0  0  0  0
    9.9720   20.4660   30.0040 C   0  0  0  0  0  0  0  0  0  0  0  0
   10.6140   19.3610   30.7190 N   0  0  0  0  0  0  0  0  0  0  0  0
   11.8140   19.6250   31.3880 C   0  0  0  0  0  0  0  0  0  0  0  0
   12.4430   18.5880   32.0900 C   0  0  0  0  0  0  0  0  0  0  0  0
   13.6250   18.8180   32.8000 C   0  0  0  0  0  0  0  0  0  0  0  0
   14.3980   17.5120   33.6110 Cl  0  0  0  0  0  0  0  0  0  0  0  0
   14.1840   20.0890   32.8570 C   0  0  0  0  0  0  0  0  0  0  0  0
   13.5350   21.1350   32.2140 C   0  0  0  0  0  0  0  0  0  0  0  0
   14.1880   22.7260   32.2940 Cl  0  0  0  0  0  0  0  0  0  0  0  0
   12.3560   20.9120   31.5020 C   0  0  0  0  0  0  0  0  0  0  0  0
    8.1940   20.4210   28.0570 C   0  0  0  0  0  0  0  0  0  0  0  0
    8.8360   21.2490   27.0250 C   0  0  0  0  0  0  0  0  0  0  0  0
    9.6320   22.3540   27.3770 C   0  0  0  0  0  0  0  0  0  0  0  0
   10.2680   23.1250   26.4000 C   0  0  0  0  0  0  0  0  0  0  0  0
   10.0920   22.8100   25.0610 C   0  0  0  0  0  0  0  0  0  0  0  0
   10.6940   23.5520   24.1250 F   0  0  0  0  0  0  0  0  0  0  0  0
    9.2910   21.7370   24.6840 C   0  0  0  0  0  0  0  0  0  0  0  0
    8.6650   20.9590   25.6630 C   0  0  0  0  0  0  0  0  0  0  0  0
    7.0160   19.8100   27.8330 N   0  0  0  0  0  0  0  0  0  0  0  0
    4.2550   18.9810   28.9810 C   0  0  0  0  0  0  0  0  0  0  0  0
    3.0940   18.2280   29.1700 C   0  0  0  0  0  0  0  0  0  0  0  0
    4.5199   15.2132   29.9169 H   0  0  0  0  0  0  0  0  0  0  0  0
    6.5968   16.5557   29.5704 H   0  0  0  0  0  0  0  0  0  0  0  0
    7.6537   18.9931   30.9750 H   0  0  0  0  0  0  0  0  0  0  0  0
   10.6594   20.8126   29.2183 H   0  0  0  0  0  0  0  0  0  0  0  0
    9.7527   21.2396   30.7546 H   0  0  0  0  0  0  0  0  0  0  0  0
   10.2140   18.4620   30.7280 H   0  0  0  0  0  0  0  0  0  0  0  0
   12.0012   17.5807   32.0822 H   0  0  0  0  0  0  0  0  0  0  0  0
   15.1237   20.2635   33.4016 H   0  0  0  0  0  0  0  0  0  0  0  0
   11.8442   21.7596   31.0228 H   0  0  0  0  0  0  0  0  0  0  0  0
    9.7559   22.6155   28.4382 H   0  0  0  0  0  0  0  0  0  0  0  0
   10.9030   23.9748   26.6908 H   0  0  0  0  0  0  0  0  0  0  0  0
    9.1504   21.5012   23.6188 H   0  0  0  0  0  0  0  0  0  0  0  0
    8.0321   20.1111   25.3622 H   0  0  0  0  0  0  0  0  0  0  0  0
    4.1770   20.0446   28.7115 H   0  0  0  0  0  0  0  0  0  0  0  0
    2.1071   18.7025   29.0655 H   0  0  0  0  0  0  0  0  0  0  0  0
  1  2  2  0
  2  3  1  0
  2  4  1  0
  4  5  2  0
  5  6  1  0
  6  7  2  0
  7  8  1  0
  8  9  1  0
  9 10  2  0
 10 11  1  0
 11 12  1  0
 12 13  1  0
 13 14  2  0
 14 15  1  0
 15 16  1  0
 15 17  2  0
 17 18  1  0
 18 19  1  0
 18 20  2  0
 10 21  1  0
 21 22  1  0
 22 23  2  0
 23 24  1  0
 24 25  2  0
 25 26  1  0
 25 27  1  0
 27 28  2  0
 21 29  2  0
  7 30  1  0
 30 31  2  0
 31  4  1  0
 29  8  1  0
 20 13  1  0
 28 22  1  0
  5 32  1  0
  6 33  1  0
  9 34  1  0
 11 35  1  0
 11 36  1  0
 12 37  1  0
 14 38  1  0
 17 39  1  0
 20 40  1  0
 23 41  1  0
 24 42  1  0
 27 43  1  0
 28 44  1  0
 30 45  1  0
 31 46  1  0
M  CHG  1   3  -1
M  END
>  <meeko>  (10) 
{"is_sidechain": [false], "free_energy": -6.697, "intermolecular_energy": -9.586, "internal_energy": -0.676}

> <PREPARED_BY>
siam chowdhury
Computational and Medicinal Chemistry
[Dr. Alam's Research Team] www.alamresearch.org
Arkansas State University

$$$$
20sa23_out
     RDKit          3D

 46 49  0  0  0  0  0  0  0  0999 V2000
   15.3230   19.9310   34.1190 O   0  0  0  0  0  0  0  0  0  0  0  0
   14.9890   19.2940   33.1390 C   0  0  0  0  0  0  0  0  0  0  0  0
   15.7650   18.3470   32.5670 O   0  0  0  0  0  0  0  0  0  0  0  0
   13.6960   19.5020   32.4420 C   0  0  0  0  0  0  0  0  0  0  0  0
   12.8590   18.4000   32.2270 C   0  0  0  0  0  0  0  0  0  0  0  0
   11.6470   18.5560   31.5410 C   0  0  0  0  0  0  0  0  0  0  0  0
   11.2750   19.8170   31.0520 C   0  0  0  0  0  0  0  0  0  0  0  0
   10.0680   19.9710   30.3100 N   0  0  0  0  0  0  0  0  0  0  0  0
    8.8570   19.3940   30.5940 C   0  0  0  0  0  0  0  0  0  0  0  0
    7.9470   19.8740   29.6820 C   0  0  0  0  0  0  0  0  0  0  0  0
    6.4840   19.5950   29.6860 C   0  0  0  0  0  0  0  0  0  0  0  0
    5.9920   18.9250   28.4810 N   0  0  0  0  0  0  0  0  0  0  0  0
    5.2430   19.6810   27.5720 C   0  0  0  0  0  0  0  0  0  0  0  0
    5.2640   19.3300   26.2160 C   0  0  0  0  0  0  0  0  0  0  0  0
    4.5570   20.0790   25.2710 C   0  0  0  0  0  0  0  0  0  0  0  0
    4.5640   19.5930   23.6210 Cl  0  0  0  0  0  0  0  0  0  0  0  0
    3.8460   21.2120   25.6500 C   0  0  0  0  0  0  0  0  0  0  0  0
    3.8690   21.6020   26.9830 C   0  0  0  0  0  0  0  0  0  0  0  0
    3.0240   23.0190   27.4750 Cl  0  0  0  0  0  0  0  0  0  0  0  0
    4.5710   20.8570   27.9310 C   0  0  0  0  0  0  0  0  0  0  0  0
    8.7120   20.6910   28.7980 C   0  0  0  0  0  0  0  0  0  0  0  0
    8.2540   21.4060   27.5970 C   0  0  0  0  0  0  0  0  0  0  0  0
    8.4870   20.8850   26.3120 C   0  0  0  0  0  0  0  0  0  0  0  0
    8.0270   21.5460   25.1710 C   0  0  0  0  0  0  0  0  0  0  0  0
    7.3510   22.7490   25.3050 C   0  0  0  0  0  0  0  0  0  0  0  0
    6.9170   23.3880   24.2130 F   0  0  0  0  0  0  0  0  0  0  0  0
    7.1270   23.3000   26.5630 C   0  0  0  0  0  0  0  0  0  0  0  0
    7.5770   22.6310   27.7060 C   0  0  0  0  0  0  0  0  0  0  0  0
    9.9880   20.7710   29.2180 N   0  0  0  0  0  0  0  0  0  0  0  0
   12.1220   20.9160   31.2700 C   0  0  0  0  0  0  0  0  0  0  0  0
   13.3300   20.7580   31.9510 C   0  0  0  0  0  0  0  0  0  0  0  0
   13.1542   17.4075   32.5983 H   0  0  0  0  0  0  0  0  0  0  0  0
   10.9873   17.6895   31.3860 H   0  0  0  0  0  0  0  0  0  0  0  0
    8.6512   18.6781   31.4034 H   0  0  0  0  0  0  0  0  0  0  0  0
    6.2584   18.9550   30.5517 H   0  0  0  0  0  0  0  0  0  0  0  0
    5.9788   20.5711   29.7305 H   0  0  0  0  0  0  0  0  0  0  0  0
    6.1820   17.9730   28.3150 H   0  0  0  0  0  0  0  0  0  0  0  0
    5.8442   18.4539   25.8908 H   0  0  0  0  0  0  0  0  0  0  0  0
    3.2754   21.7893   24.9076 H   0  0  0  0  0  0  0  0  0  0  0  0
    4.5973   21.1981   28.9764 H   0  0  0  0  0  0  0  0  0  0  0  0
    9.0409   19.9409   26.2036 H   0  0  0  0  0  0  0  0  0  0  0  0
    8.1997   21.1154   24.1736 H   0  0  0  0  0  0  0  0  0  0  0  0
    6.5973   24.2593   26.6583 H   0  0  0  0  0  0  0  0  0  0  0  0
    7.3988   23.0687   28.6993 H   0  0  0  0  0  0  0  0  0  0  0  0
   11.8306   21.9103   30.9006 H   0  0  0  0  0  0  0  0  0  0  0  0
   13.9939   21.6221   32.1012 H   0  0  0  0  0  0  0  0  0  0  0  0
  1  2  2  0
  2  3  1  0
  2  4  1  0
  4  5  2  0
  5  6  1  0
  6  7  2  0
  7  8  1  0
  8  9  1  0
  9 10  2  0
 10 11  1  0
 11 12  1  0
 12 13  1  0
 13 14  2  0
 14 15  1  0
 15 16  1  0
 15 17  2  0
 17 18  1  0
 18 19  1  0
 18 20  2  0
 10 21  1  0
 21 22  1  0
 22 23  2  0
 23 24  1  0
 24 25  2  0
 25 26  1  0
 25 27  1  0
 27 28  2  0
 21 29  2  0
  7 30  1  0
 30 31  2  0
 31  4  1  0
 29  8  1  0
 20 13  1  0
 28 22  1  0
  5 32  1  0
  6 33  1  0
  9 34  1  0
 11 35  1  0
 11 36  1  0
 12 37  1  0
 14 38  1  0
 17 39  1  0
 20 40  1  0
 23 41  1  0
 24 42  1  0
 27 43  1  0
 28 44  1  0
 30 45  1  0
 31 46  1  0
M  CHG  1   3  -1
M  END
>  <meeko>  (11) 
{"is_sidechain": [false], "free_energy": -6.668, "intermolecular_energy": -8.036, "internal_energy": -2.188}

> <PREPARED_BY>
siam chowdhury
Computational and Medicinal Chemistry
[Dr. Alam's Research Team] www.alamresearch.org
Arkansas State University

$$$$
20sa23_out
     RDKit          3D

 46 49  0  0  0  0  0  0  0  0999 V2000
    5.6130   21.3270   27.4840 O   0  0  0  0  0  0  0  0  0  0  0  0
    6.5130   20.5250   27.3230 C   0  0  0  0  0  0  0  0  0  0  0  0
    6.5550   19.6510   26.2940 O   0  0  0  0  0  0  0  0  0  0  0  0
    7.6590   20.4000   28.2560 C   0  0  0  0  0  0  0  0  0  0  0  0
    8.8950   20.9460   27.8850 C   0  0  0  0  0  0  0  0  0  0  0  0
   10.0070   20.8150   28.7280 C   0  0  0  0  0  0  0  0  0  0  0  0
    9.8900   20.1220   29.9410 C   0  0  0  0  0  0  0  0  0  0  0  0
   11.0290   19.9420   30.7780 N   0  0  0  0  0  0  0  0  0  0  0  0
   12.0010   20.8720   31.0430 C   0  0  0  0  0  0  0  0  0  0  0  0
   12.8630   20.3200   31.9610 C   0  0  0  0  0  0  0  0  0  0  0  0
   14.0040   21.0210   32.6120 C   0  0  0  0  0  0  0  0  0  0  0  0
   13.6250   22.1980   33.3950 N   0  0  0  0  0  0  0  0  0  0  0  0
   13.4660   22.0420   34.7760 C   0  0  0  0  0  0  0  0  0  0  0  0
   14.1490   21.0050   35.4260 C   0  0  0  0  0  0  0  0  0  0  0  0
   13.9910   20.7950   36.7990 C   0  0  0  0  0  0  0  0  0  0  0  0
   14.8810   19.5430   37.5760 Cl  0  0  0  0  0  0  0  0  0  0  0  0
   13.1250   21.5860   37.5450 C   0  0  0  0  0  0  0  0  0  0  0  0
   12.3990   22.5770   36.8970 C   0  0  0  0  0  0  0  0  0  0  0  0
   11.2950   23.5510   37.7900 Cl  0  0  0  0  0  0  0  0  0  0  0  0
   12.5530   22.7940   35.5270 C   0  0  0  0  0  0  0  0  0  0  0  0
   12.3900   18.9870   32.1480 C   0  0  0  0  0  0  0  0  0  0  0  0
   12.9760   17.9240   32.9810 C   0  0  0  0  0  0  0  0  0  0  0  0
   14.2810   18.0410   33.4900 C   0  0  0  0  0  0  0  0  0  0  0  0
   14.8290   17.0480   34.3060 C   0  0  0  0  0  0  0  0  0  0  0  0
   14.0820   15.9180   34.5990 C   0  0  0  0  0  0  0  0  0  0  0  0
   14.6080   14.9620   35.3740 F   0  0  0  0  0  0  0  0  0  0  0  0
   12.7960   15.7650   34.0900 C   0  0  0  0  0  0  0  0  0  0  0  0
   12.2440   16.7660   33.2830 C   0  0  0  0  0  0  0  0  0  0  0  0
   11.2550   18.7890   31.4540 N   0  0  0  0  0  0  0  0  0  0  0  0
    8.6470   19.5750   30.3030 C   0  0  0  0  0  0  0  0  0  0  0  0
    7.5410   19.7050   29.4620 C   0  0  0  0  0  0  0  0  0  0  0  0
    8.9930   21.4797   26.9281 H   0  0  0  0  0  0  0  0  0  0  0  0
   10.9720   21.2561   28.4377 H   0  0  0  0  0  0  0  0  0  0  0  0
   12.0773   21.8767   30.6016 H   0  0  0  0  0  0  0  0  0  0  0  0
   14.5071   20.3092   33.2830 H   0  0  0  0  0  0  0  0  0  0  0  0
   14.6546   21.3804   31.8011 H   0  0  0  0  0  0  0  0  0  0  0  0
   13.4860   23.0720   32.9630 H   0  0  0  0  0  0  0  0  0  0  0  0
   14.8172   20.3487   34.8490 H   0  0  0  0  0  0  0  0  0  0  0  0
   13.0167   21.4300   38.6285 H   0  0  0  0  0  0  0  0  0  0  0  0
   11.9487   23.5668   35.0295 H   0  0  0  0  0  0  0  0  0  0  0  0
   14.8808   18.9291   33.2418 H   0  0  0  0  0  0  0  0  0  0  0  0
   15.8448   17.1621   34.7124 H   0  0  0  0  0  0  0  0  0  0  0  0
   12.2151   14.8600   34.3213 H   0  0  0  0  0  0  0  0  0  0  0  0
   11.2271   16.6438   32.8818 H   0  0  0  0  0  0  0  0  0  0  0  0
    8.5450   19.0393   31.2583 H   0  0  0  0  0  0  0  0  0  0  0  0
    6.5766   19.2603   29.7487 H   0  0  0  0  0  0  0  0  0  0  0  0
  1  2  2  0
  2  3  1  0
  2  4  1  0
  4  5  2  0
  5  6  1  0
  6  7  2  0
  7  8  1  0
  8  9  1  0
  9 10  2  0
 10 11  1  0
 11 12  1  0
 12 13  1  0
 13 14  2  0
 14 15  1  0
 15 16  1  0
 15 17  2  0
 17 18  1  0
 18 19  1  0
 18 20  2  0
 10 21  1  0
 21 22  1  0
 22 23  2  0
 23 24  1  0
 24 25  2  0
 25 26  1  0
 25 27  1  0
 27 28  2  0
 21 29  2  0
  7 30  1  0
 30 31  2  0
 31  4  1  0
 29  8  1  0
 20 13  1  0
 28 22  1  0
  5 32  1  0
  6 33  1  0
  9 34  1  0
 11 35  1  0
 11 36  1  0
 12 37  1  0
 14 38  1  0
 17 39  1  0
 20 40  1  0
 23 41  1  0
 24 42  1  0
 27 43  1  0
 28 44  1  0
 30 45  1  0
 31 46  1  0
M  CHG  1   3  -1
M  END
>  <meeko>  (12) 
{"is_sidechain": [false], "free_energy": -6.405, "intermolecular_energy": -8.866, "internal_energy": -1.002}

> <PREPARED_BY>
siam chowdhury
Computational and Medicinal Chemistry
[Dr. Alam's Research Team] www.alamresearch.org
Arkansas State University

$$$$
20sa23_out
     RDKit          3D

 46 49  0  0  0  0  0  0  0  0999 V2000
    5.4550   21.0990   27.5270 O   0  0  0  0  0  0  0  0  0  0  0  0
    6.3590   20.2970   27.3880 C   0  0  0  0  0  0  0  0  0  0  0  0
    6.3870   19.3710   26.4060 O   0  0  0  0  0  0  0  0  0  0  0  0
    7.5260   20.2300   28.3010 C   0  0  0  0  0  0  0  0  0  0  0  0
    8.7390   20.7960   27.8900 C   0  0  0  0  0  0  0  0  0  0  0  0
    9.8700   20.7190   28.7140 C   0  0  0  0  0  0  0  0  0  0  0  0
    9.7950   20.0600   29.9500 C   0  0  0  0  0  0  0  0  0  0  0  0
   10.9540   19.9360   30.7690 N   0  0  0  0  0  0  0  0  0  0  0  0
   11.8780   20.9150   31.0290 C   0  0  0  0  0  0  0  0  0  0  0  0
   12.7820   20.4020   31.9290 C   0  0  0  0  0  0  0  0  0  0  0  0
   13.8930   21.1580   32.5710 C   0  0  0  0  0  0  0  0  0  0  0  0
   13.4580   22.2500   33.4440 N   0  0  0  0  0  0  0  0  0  0  0  0
   13.3720   21.9950   34.8170 C   0  0  0  0  0  0  0  0  0  0  0  0
   12.5300   22.7900   35.6050 C   0  0  0  0  0  0  0  0  0  0  0  0
   12.4420   22.5900   36.9860 C   0  0  0  0  0  0  0  0  0  0  0  0
   11.3620   23.5520   37.9180 Cl  0  0  0  0  0  0  0  0  0  0  0  0
   13.2150   21.6210   37.6140 C   0  0  0  0  0  0  0  0  0  0  0  0
   14.0980   20.8690   36.8490 C   0  0  0  0  0  0  0  0  0  0  0  0
   15.0910   19.6840   37.6060 Cl  0  0  0  0  0  0  0  0  0  0  0  0
   14.1890   21.0620   35.4700 C   0  0  0  0  0  0  0  0  0  0  0  0
   12.3850   19.0440   32.1110 C   0  0  0  0  0  0  0  0  0  0  0  0
   13.0380   18.0080   32.9260 C   0  0  0  0  0  0  0  0  0  0  0  0
   14.3550   18.1770   33.3890 C   0  0  0  0  0  0  0  0  0  0  0  0
   14.9680   17.2090   34.1880 C   0  0  0  0  0  0  0  0  0  0  0  0
   14.2760   16.0510   34.5090 C   0  0  0  0  0  0  0  0  0  0  0  0
   14.8650   15.1190   35.2680 F   0  0  0  0  0  0  0  0  0  0  0  0
   12.9810   15.8470   34.0450 C   0  0  0  0  0  0  0  0  0  0  0  0
   12.3630   16.8230   33.2550 C   0  0  0  0  0  0  0  0  0  0  0  0
   11.2510   18.7910   31.4310 N   0  0  0  0  0  0  0  0  0  0  0  0
    8.5740   19.4940   30.3530 C   0  0  0  0  0  0  0  0  0  0  0  0
    7.4490   19.5690   29.5300 C   0  0  0  0  0  0  0  0  0  0  0  0
    8.8045   21.3033   26.9161 H   0  0  0  0  0  0  0  0  0  0  0  0
   10.8172   21.1757   28.3913 H   0  0  0  0  0  0  0  0  0  0  0  0
   11.8933   21.9263   30.5965 H   0  0  0  0  0  0  0  0  0  0  0  0
   14.4863   20.4531   33.1719 H   0  0  0  0  0  0  0  0  0  0  0  0
   14.4701   21.6193   31.7560 H   0  0  0  0  0  0  0  0  0  0  0  0
   13.2320   23.1350   33.0770 H   0  0  0  0  0  0  0  0  0  0  0  0
   11.9306   23.5815   35.1315 H   0  0  0  0  0  0  0  0  0  0  0  0
   13.1294   21.4523   38.6976 H   0  0  0  0  0  0  0  0  0  0  0  0
   14.9125   20.4733   34.8869 H   0  0  0  0  0  0  0  0  0  0  0  0
   14.9115   19.0862   33.1176 H   0  0  0  0  0  0  0  0  0  0  0  0
   15.9916   17.3641   34.5596 H   0  0  0  0  0  0  0  0  0  0  0  0
   12.4439   14.9210   34.2982 H   0  0  0  0  0  0  0  0  0  0  0  0
   11.3387   16.6595   32.8887 H   0  0  0  0  0  0  0  0  0  0  0  0
    8.5038   18.9868   31.3266 H   0  0  0  0  0  0  0  0  0  0  0  0
    6.5024   19.1081   29.8486 H   0  0  0  0  0  0  0  0  0  0  0  0
  1  2  2  0
  2  3  1  0
  2  4  1  0
  4  5  2  0
  5  6  1  0
  6  7  2  0
  7  8  1  0
  8  9  1  0
  9 10  2  0
 10 11  1  0
 11 12  1  0
 12 13  1  0
 13 14  2  0
 14 15  1  0
 15 16  1  0
 15 17  2  0
 17 18  1  0
 18 19  1  0
 18 20  2  0
 10 21  1  0
 21 22  1  0
 22 23  2  0
 23 24  1  0
 24 25  2  0
 25 26  1  0
 25 27  1  0
 27 28  2  0
 21 29  2  0
  7 30  1  0
 30 31  2  0
 31  4  1  0
 29  8  1  0
 20 13  1  0
 28 22  1  0
  5 32  1  0
  6 33  1  0
  9 34  1  0
 11 35  1  0
 11 36  1  0
 12 37  1  0
 14 38  1  0
 17 39  1  0
 20 40  1  0
 23 41  1  0
 24 42  1  0
 27 43  1  0
 28 44  1  0
 30 45  1  0
 31 46  1  0
M  CHG  1   3  -1
M  END
>  <meeko>  (13) 
{"is_sidechain": [false], "free_energy": -6.342, "intermolecular_energy": -8.796, "internal_energy": -0.987}

> <PREPARED_BY>
siam chowdhury
Computational and Medicinal Chemistry
[Dr. Alam's Research Team] www.alamresearch.org
Arkansas State University

$$$$
20sa23_out
     RDKit          3D

 46 49  0  0  0  0  0  0  0  0999 V2000
   14.2830   18.5130   32.9180 O   0  0  0  0  0  0  0  0  0  0  0  0
   13.8930   19.4420   32.2370 C   0  0  0  0  0  0  0  0  0  0  0  0
   14.6550   20.5170   31.9400 O   0  0  0  0  0  0  0  0  0  0  0  0
   12.5220   19.5130   31.6750 C   0  0  0  0  0  0  0  0  0  0  0  0
   12.0230   20.7550   31.2630 C   0  0  0  0  0  0  0  0  0  0  0  0
   10.7200   20.8620   30.7600 C   0  0  0  0  0  0  0  0  0  0  0  0
    9.9020   19.7250   30.6830 C   0  0  0  0  0  0  0  0  0  0  0  0
    8.5590   19.8370   30.2200 N   0  0  0  0  0  0  0  0  0  0  0  0
    7.8720   21.0010   29.9850 C   0  0  0  0  0  0  0  0  0  0  0  0
    6.6450   20.6580   29.4680 C   0  0  0  0  0  0  0  0  0  0  0  0
    5.6160   21.6120   28.9670 C   0  0  0  0  0  0  0  0  0  0  0  0
    6.0220   22.3730   27.7840 N   0  0  0  0  0  0  0  0  0  0  0  0
    6.3030   21.6610   26.6140 C   0  0  0  0  0  0  0  0  0  0  0  0
    7.5370   21.8570   25.9790 C   0  0  0  0  0  0  0  0  0  0  0  0
    7.8440   21.1910   24.7890 C   0  0  0  0  0  0  0  0  0  0  0  0
    9.3860   21.4170   24.0600 Cl  0  0  0  0  0  0  0  0  0  0  0  0
    6.9180   20.3460   24.1880 C   0  0  0  0  0  0  0  0  0  0  0  0
    5.6710   20.1920   24.7790 C   0  0  0  0  0  0  0  0  0  0  0  0
    4.4930   19.1770   24.0400 Cl  0  0  0  0  0  0  0  0  0  0  0  0
    5.3590   20.8530   25.9680 C   0  0  0  0  0  0  0  0  0  0  0  0
    6.6210   19.2320   29.4980 C   0  0  0  0  0  0  0  0  0  0  0  0
    5.5210   18.3340   29.1150 C   0  0  0  0  0  0  0  0  0  0  0  0
    5.5260   17.6710   27.8750 C   0  0  0  0  0  0  0  0  0  0  0  0
    4.4970   16.7950   27.5210 C   0  0  0  0  0  0  0  0  0  0  0  0
    3.4420   16.5930   28.3970 C   0  0  0  0  0  0  0  0  0  0  0  0
    2.4520   15.7600   28.0570 F   0  0  0  0  0  0  0  0  0  0  0  0
    3.3990   17.2530   29.6210 C   0  0  0  0  0  0  0  0  0  0  0  0
    4.4360   18.1210   29.9790 C   0  0  0  0  0  0  0  0  0  0  0  0
    7.8060   18.7510   29.9190 N   0  0  0  0  0  0  0  0  0  0  0  0
   10.4100   18.4830   31.1010 C   0  0  0  0  0  0  0  0  0  0  0  0
   11.7080   18.3790   31.6040 C   0  0  0  0  0  0  0  0  0  0  0  0
   12.6573   21.6508   31.3347 H   0  0  0  0  0  0  0  0  0  0  0  0
   10.3382   21.8378   30.4253 H   0  0  0  0  0  0  0  0  0  0  0  0
    8.2360   22.0214   30.1753 H   0  0  0  0  0  0  0  0  0  0  0  0
    4.7108   21.0403   28.7144 H   0  0  0  0  0  0  0  0  0  0  0  0
    5.4499   22.3451   29.7702 H   0  0  0  0  0  0  0  0  0  0  0  0
    6.0930   23.3550   27.8110 H   0  0  0  0  0  0  0  0  0  0  0  0
    8.2731   22.5435   26.4226 H   0  0  0  0  0  0  0  0  0  0  0  0
    7.1686   19.8092   23.2612 H   0  0  0  0  0  0  0  0  0  0  0  0
    4.3559   20.7375   26.4045 H   0  0  0  0  0  0  0  0  0  0  0  0
    6.3540   17.8450   27.1720 H   0  0  0  0  0  0  0  0  0  0  0  0
    4.5238   16.2698   26.5549 H   0  0  0  0  0  0  0  0  0  0  0  0
    2.5525   17.0928   30.3049 H   0  0  0  0  0  0  0  0  0  0  0  0
    4.4005   18.6417   30.9473 H   0  0  0  0  0  0  0  0  0  0  0  0
    9.7790   17.5847   31.0311 H   0  0  0  0  0  0  0  0  0  0  0  0
   12.0900   17.4052   31.9443 H   0  0  0  0  0  0  0  0  0  0  0  0
  1  2  2  0
  2  3  1  0
  2  4  1  0
  4  5  2  0
  5  6  1  0
  6  7  2  0
  7  8  1  0
  8  9  1  0
  9 10  2  0
 10 11  1  0
 11 12  1  0
 12 13  1  0
 13 14  2  0
 14 15  1  0
 15 16  1  0
 15 17  2  0
 17 18  1  0
 18 19  1  0
 18 20  2  0
 10 21  1  0
 21 22  1  0
 22 23  2  0
 23 24  1  0
 24 25  2  0
 25 26  1  0
 25 27  1  0
 27 28  2  0
 21 29  2  0
  7 30  1  0
 30 31  2  0
 31  4  1  0
 29  8  1  0
 20 13  1  0
 28 22  1  0
  5 32  1  0
  6 33  1  0
  9 34  1  0
 11 35  1  0
 11 36  1  0
 12 37  1  0
 14 38  1  0
 17 39  1  0
 20 40  1  0
 23 41  1  0
 24 42  1  0
 27 43  1  0
 28 44  1  0
 30 45  1  0
 31 46  1  0
M  CHG  1   3  -1
M  END
>  <meeko>  (14) 
{"is_sidechain": [false], "free_energy": -6.153, "intermolecular_energy": -7.844, "internal_energy": -1.684}

> <PREPARED_BY>
siam chowdhury
Computational and Medicinal Chemistry
[Dr. Alam's Research Team] www.alamresearch.org
Arkansas State University

$$$$
20sa23_out
     RDKit          3D

 46 49  0  0  0  0  0  0  0  0999 V2000
    3.7400   15.8820   27.8880 O   0  0  0  0  0  0  0  0  0  0  0  0
    3.8740   15.6460   29.0730 C   0  0  0  0  0  0  0  0  0  0  0  0
    2.8460   15.3270   29.8890 O   0  0  0  0  0  0  0  0  0  0  0  0
    5.1840   15.7050   29.7660 C   0  0  0  0  0  0  0  0  0  0  0  0
    5.6810   14.5450   30.3750 C   0  0  0  0  0  0  0  0  0  0  0  0
    6.8980   14.5750   31.0670 C   0  0  0  0  0  0  0  0  0  0  0  0
    7.6190   15.7740   31.1660 C   0  0  0  0  0  0  0  0  0  0  0  0
    8.8330   15.8220   31.9110 N   0  0  0  0  0  0  0  0  0  0  0  0
    9.2230   14.9470   32.8930 C   0  0  0  0  0  0  0  0  0  0  0  0
   10.4900   15.3050   33.2860 C   0  0  0  0  0  0  0  0  0  0  0  0
   11.3420   14.5600   34.2550 C   0  0  0  0  0  0  0  0  0  0  0  0
   11.4020   15.1560   35.5910 N   0  0  0  0  0  0  0  0  0  0  0  0
   12.6650   15.4020   36.1400 C   0  0  0  0  0  0  0  0  0  0  0  0
   13.7560   14.6360   35.7070 C   0  0  0  0  0  0  0  0  0  0  0  0
   15.0280   14.8280   36.2550 C   0  0  0  0  0  0  0  0  0  0  0  0
   16.3560   13.9050   35.6670 Cl  0  0  0  0  0  0  0  0  0  0  0  0
   15.2330   15.7560   37.2690 C   0  0  0  0  0  0  0  0  0  0  0  0
   14.1450   16.4770   37.7470 C   0  0  0  0  0  0  0  0  0  0  0  0
   14.3630   17.6100   39.0240 Cl  0  0  0  0  0  0  0  0  0  0  0  0
   12.8740   16.2920   37.2020 C   0  0  0  0  0  0  0  0  0  0  0  0
   10.7820   16.4890   32.5450 C   0  0  0  0  0  0  0  0  0  0  0  0
   11.9840   17.3330   32.6180 C   0  0  0  0  0  0  0  0  0  0  0  0
   13.0630   16.9840   33.4490 C   0  0  0  0  0  0  0  0  0  0  0  0
   14.2190   17.7670   33.4980 C   0  0  0  0  0  0  0  0  0  0  0  0
   14.2930   18.9220   32.7340 C   0  0  0  0  0  0  0  0  0  0  0  0
   15.3960   19.6780   32.7860 F   0  0  0  0  0  0  0  0  0  0  0  0
   13.2310   19.3040   31.9210 C   0  0  0  0  0  0  0  0  0  0  0  0
   12.0790   18.5120   31.8630 C   0  0  0  0  0  0  0  0  0  0  0  0
    9.7820   16.7640   31.6870 N   0  0  0  0  0  0  0  0  0  0  0  0
    7.1130   16.9330   30.5540 C   0  0  0  0  0  0  0  0  0  0  0  0
    5.8980   16.9020   29.8670 C   0  0  0  0  0  0  0  0  0  0  0  0
    5.1121   13.6058   30.3091 H   0  0  0  0  0  0  0  0  0  0  0  0
    7.2885   13.6583   31.5329 H   0  0  0  0  0  0  0  0  0  0  0  0
    8.6297   14.1114   33.2928 H   0  0  0  0  0  0  0  0  0  0  0  0
   10.9421   13.5398   34.3511 H   0  0  0  0  0  0  0  0  0  0  0  0
   12.3663   14.5833   33.8547 H   0  0  0  0  0  0  0  0  0  0  0  0
   10.5810   15.3770   36.0860 H   0  0  0  0  0  0  0  0  0  0  0  0
   13.6098   13.8746   34.9267 H   0  0  0  0  0  0  0  0  0  0  0  0
   16.2382   15.9170   37.6858 H   0  0  0  0  0  0  0  0  0  0  0  0
   12.0222   16.8539   37.6127 H   0  0  0  0  0  0  0  0  0  0  0  0
   12.9959   16.0793   34.0710 H   0  0  0  0  0  0  0  0  0  0  0  0
   15.0634   17.4698   34.1372 H   0  0  0  0  0  0  0  0  0  0  0  0
   13.2966   20.2263   31.3252 H   0  0  0  0  0  0  0  0  0  0  0  0
   11.2402   18.8163   31.2197 H   0  0  0  0  0  0  0  0  0  0  0  0
    7.6795   17.8738   30.6167 H   0  0  0  0  0  0  0  0  0  0  0  0
    5.5030   17.8191   29.4056 H   0  0  0  0  0  0  0  0  0  0  0  0
  1  2  2  0
  2  3  1  0
  2  4  1  0
  4  5  2  0
  5  6  1  0
  6  7  2  0
  7  8  1  0
  8  9  1  0
  9 10  2  0
 10 11  1  0
 11 12  1  0
 12 13  1  0
 13 14  2  0
 14 15  1  0
 15 16  1  0
 15 17  2  0
 17 18  1  0
 18 19  1  0
 18 20  2  0
 10 21  1  0
 21 22  1  0
 22 23  2  0
 23 24  1  0
 24 25  2  0
 25 26  1  0
 25 27  1  0
 27 28  2  0
 21 29  2  0
  7 30  1  0
 30 31  2  0
 31  4  1  0
 29  8  1  0
 20 13  1  0
 28 22  1  0
  5 32  1  0
  6 33  1  0
  9 34  1  0
 11 35  1  0
 11 36  1  0
 12 37  1  0
 14 38  1  0
 17 39  1  0
 20 40  1  0
 23 41  1  0
 24 42  1  0
 27 43  1  0
 28 44  1  0
 30 45  1  0
 31 46  1  0
M  CHG  1   3  -1
M  END
>  <meeko>  (15) 
{"is_sidechain": [false], "free_energy": -6.135, "intermolecular_energy": -9.047, "internal_energy": -0.456}

> <PREPARED_BY>
siam chowdhury
Computational and Medicinal Chemistry
[Dr. Alam's Research Team] www.alamresearch.org
Arkansas State University

$$$$
20sa23_out
     RDKit          3D

 46 49  0  0  0  0  0  0  0  0999 V2000
   15.7380   18.8200   33.8800 O   0  0  0  0  0  0  0  0  0  0  0  0
   15.1510   19.8680   33.6930 C   0  0  0  0  0  0  0  0  0  0  0  0
   15.5500   21.0470   34.2180 O   0  0  0  0  0  0  0  0  0  0  0  0
   13.9120   19.9670   32.8840 C   0  0  0  0  0  0  0  0  0  0  0  0
   13.2250   18.7920   32.5530 C   0  0  0  0  0  0  0  0  0  0  0  0
   12.0710   18.8470   31.7610 C   0  0  0  0  0  0  0  0  0  0  0  0
   11.6060   20.0810   31.2830 C   0  0  0  0  0  0  0  0  0  0  0  0
   10.4610   20.1380   30.4360 N   0  0  0  0  0  0  0  0  0  0  0  0
    9.3040   19.4170   30.5790 C   0  0  0  0  0  0  0  0  0  0  0  0
    8.4310   19.8370   29.6040 C   0  0  0  0  0  0  0  0  0  0  0  0
    7.0160   19.3980   29.4570 C   0  0  0  0  0  0  0  0  0  0  0  0
    6.0260   20.4260   29.7810 N   0  0  0  0  0  0  0  0  0  0  0  0
    5.1140   20.7940   28.7850 C   0  0  0  0  0  0  0  0  0  0  0  0
    3.8530   21.2730   29.1620 C   0  0  0  0  0  0  0  0  0  0  0  0
    2.9020   21.6200   28.1970 C   0  0  0  0  0  0  0  0  0  0  0  0
    1.3790   22.2510   28.6920 Cl  0  0  0  0  0  0  0  0  0  0  0  0
    3.1720   21.4620   26.8430 C   0  0  0  0  0  0  0  0  0  0  0  0
    4.3980   20.9300   26.4630 C   0  0  0  0  0  0  0  0  0  0  0  0
    4.7480   20.6930   24.7940 Cl  0  0  0  0  0  0  0  0  0  0  0  0
    5.3520   20.5850   27.4200 C   0  0  0  0  0  0  0  0  0  0  0  0
    9.1740   20.7780   28.8310 C   0  0  0  0  0  0  0  0  0  0  0  0
    8.7470   21.4980   27.6210 C   0  0  0  0  0  0  0  0  0  0  0  0
    8.1630   22.7740   27.7070 C   0  0  0  0  0  0  0  0  0  0  0  0
    7.7840   23.4730   26.5570 C   0  0  0  0  0  0  0  0  0  0  0  0
    7.9640   22.8880   25.3130 C   0  0  0  0  0  0  0  0  0  0  0  0
    7.5950   23.5520   24.2120 F   0  0  0  0  0  0  0  0  0  0  0  0
    8.5180   21.6160   25.2000 C   0  0  0  0  0  0  0  0  0  0  0  0
    8.9090   20.9230   26.3510 C   0  0  0  0  0  0  0  0  0  0  0  0
   10.3890   20.9780   29.3740 N   0  0  0  0  0  0  0  0  0  0  0  0
   12.3020   21.2550   31.6190 C   0  0  0  0  0  0  0  0  0  0  0  0
   13.4540   21.1970   32.4060 C   0  0  0  0  0  0  0  0  0  0  0  0
   13.5935   17.8215   32.9168 H   0  0  0  0  0  0  0  0  0  0  0  0
   11.5292   17.9221   31.5138 H   0  0  0  0  0  0  0  0  0  0  0  0
    9.1096   18.6432   31.3362 H   0  0  0  0  0  0  0  0  0  0  0  0
    6.8593   19.0865   28.4137 H   0  0  0  0  0  0  0  0  0  0  0  0
    6.8653   18.5799   30.1768 H   0  0  0  0  0  0  0  0  0  0  0  0
    6.0010   20.8450   30.6720 H   0  0  0  0  0  0  0  0  0  0  0  0
    3.6078   21.3775   30.2292 H   0  0  0  0  0  0  0  0  0  0  0  0
    2.4288   21.7528   26.0860 H   0  0  0  0  0  0  0  0  0  0  0  0
    6.3061   20.1420   27.0983 H   0  0  0  0  0  0  0  0  0  0  0  0
    8.0017   23.2298   28.6951 H   0  0  0  0  0  0  0  0  0  0  0  0
    7.3465   24.4790   26.6386 H   0  0  0  0  0  0  0  0  0  0  0  0
    8.6480   21.1570   24.2088 H   0  0  0  0  0  0  0  0  0  0  0  0
    9.3474   19.9183   26.2596 H   0  0  0  0  0  0  0  0  0  0  0  0
   11.9361   22.2278   31.2589 H   0  0  0  0  0  0  0  0  0  0  0  0
   14.0008   22.1199   32.6495 H   0  0  0  0  0  0  0  0  0  0  0  0
  1  2  2  0
  2  3  1  0
  2  4  1  0
  4  5  2  0
  5  6  1  0
  6  7  2  0
  7  8  1  0
  8  9  1  0
  9 10  2  0
 10 11  1  0
 11 12  1  0
 12 13  1  0
 13 14  2  0
 14 15  1  0
 15 16  1  0
 15 17  2  0
 17 18  1  0
 18 19  1  0
 18 20  2  0
 10 21  1  0
 21 22  1  0
 22 23  2  0
 23 24  1  0
 24 25  2  0
 25 26  1  0
 25 27  1  0
 27 28  2  0
 21 29  2  0
  7 30  1  0
 30 31  2  0
 31  4  1  0
 29  8  1  0
 20 13  1  0
 28 22  1  0
  5 32  1  0
  6 33  1  0
  9 34  1  0
 11 35  1  0
 11 36  1  0
 12 37  1  0
 14 38  1  0
 17 39  1  0
 20 40  1  0
 23 41  1  0
 24 42  1  0
 27 43  1  0
 28 44  1  0
 30 45  1  0
 31 46  1  0
M  CHG  1   3  -1
M  END
>  <meeko>  (16) 
{"is_sidechain": [false], "free_energy": -5.992, "intermolecular_energy": -7.564, "internal_energy": -1.746}

> <PREPARED_BY>
siam chowdhury
Computational and Medicinal Chemistry
[Dr. Alam's Research Team] www.alamresearch.org
Arkansas State University

$$$$
20sa23_out
     RDKit          3D

 46 49  0  0  0  0  0  0  0  0999 V2000
    5.8810   21.0690   26.6340 O   0  0  0  0  0  0  0  0  0  0  0  0
    5.9200   20.5270   27.7220 C   0  0  0  0  0  0  0  0  0  0  0  0
    4.8230   20.0900   28.3760 O   0  0  0  0  0  0  0  0  0  0  0  0
    7.1830   20.3050   28.4680 C   0  0  0  0  0  0  0  0  0  0  0  0
    7.1410   19.5910   29.6720 C   0  0  0  0  0  0  0  0  0  0  0  0
    8.3100   19.3940   30.4190 C   0  0  0  0  0  0  0  0  0  0  0  0
    9.5270   19.9270   29.9700 C   0  0  0  0  0  0  0  0  0  0  0  0
   10.7100   19.7730   30.7510 N   0  0  0  0  0  0  0  0  0  0  0  0
   11.2360   18.5920   31.2090 C   0  0  0  0  0  0  0  0  0  0  0  0
   12.4210   18.8860   31.8410 C   0  0  0  0  0  0  0  0  0  0  0  0
   13.3800   17.8910   32.3950 C   0  0  0  0  0  0  0  0  0  0  0  0
   12.9880   17.3260   33.6870 N   0  0  0  0  0  0  0  0  0  0  0  0
   13.8580   17.5020   34.7690 C   0  0  0  0  0  0  0  0  0  0  0  0
   14.5200   18.7280   34.9170 C   0  0  0  0  0  0  0  0  0  0  0  0
   15.4230   18.9330   35.9640 C   0  0  0  0  0  0  0  0  0  0  0  0
   16.1820   20.4670   36.1460 Cl  0  0  0  0  0  0  0  0  0  0  0  0
   15.7130   17.9130   36.8620 C   0  0  0  0  0  0  0  0  0  0  0  0
   15.1080   16.6750   36.6870 C   0  0  0  0  0  0  0  0  0  0  0  0
   15.4730   15.3830   37.7650 Cl  0  0  0  0  0  0  0  0  0  0  0  0
   14.2040   16.4650   35.6450 C   0  0  0  0  0  0  0  0  0  0  0  0
   12.5120   20.3090   31.8030 C   0  0  0  0  0  0  0  0  0  0  0  0
   13.5520   21.1690   32.3890 C   0  0  0  0  0  0  0  0  0  0  0  0
   13.2530   22.0500   33.4430 C   0  0  0  0  0  0  0  0  0  0  0  0
   14.2450   22.8460   34.0210 C   0  0  0  0  0  0  0  0  0  0  0  0
   15.5400   22.7840   33.5310 C   0  0  0  0  0  0  0  0  0  0  0  0
   16.4900   23.5520   34.0790 F   0  0  0  0  0  0  0  0  0  0  0  0
   15.8600   21.9390   32.4740 C   0  0  0  0  0  0  0  0  0  0  0  0
   14.8680   21.1340   31.9030 C   0  0  0  0  0  0  0  0  0  0  0  0
   11.4860   20.8270   31.1020 N   0  0  0  0  0  0  0  0  0  0  0  0
    9.5600   20.6440   28.7620 C   0  0  0  0  0  0  0  0  0  0  0  0
    8.3940   20.8420   28.0210 C   0  0  0  0  0  0  0  0  0  0  0  0
    6.1855   19.1828   30.0331 H   0  0  0  0  0  0  0  0  0  0  0  0
    8.2732   18.8214   31.3575 H   0  0  0  0  0  0  0  0  0  0  0  0
   10.7912   17.5927   31.0921 H   0  0  0  0  0  0  0  0  0  0  0  0
   13.4746   17.0661   31.6735 H   0  0  0  0  0  0  0  0  0  0  0  0
   14.3262   18.4267   32.5614 H   0  0  0  0  0  0  0  0  0  0  0  0
   12.1390   16.8380   33.7920 H   0  0  0  0  0  0  0  0  0  0  0  0
   14.3266   19.5395   34.2001 H   0  0  0  0  0  0  0  0  0  0  0  0
   16.4092   18.0829   37.6965 H   0  0  0  0  0  0  0  0  0  0  0  0
   13.7560   15.4696   35.5093 H   0  0  0  0  0  0  0  0  0  0  0  0
   12.2211   22.1136   33.8187 H   0  0  0  0  0  0  0  0  0  0  0  0
   14.0003   23.5164   34.8581 H   0  0  0  0  0  0  0  0  0  0  0  0
   16.8894   21.9035   32.0880 H   0  0  0  0  0  0  0  0  0  0  0  0
   15.1221   20.4676   31.0655 H   0  0  0  0  0  0  0  0  0  0  0  0
   10.5137   21.0530   28.3970 H   0  0  0  0  0  0  0  0  0  0  0  0
    8.4278   21.4202   27.0858 H   0  0  0  0  0  0  0  0  0  0  0  0
  1  2  2  0
  2  3  1  0
  2  4  1  0
  4  5  2  0
  5  6  1  0
  6  7  2  0
  7  8  1  0
  8  9  1  0
  9 10  2  0
 10 11  1  0
 11 12  1  0
 12 13  1  0
 13 14  2  0
 14 15  1  0
 15 16  1  0
 15 17  2  0
 17 18  1  0
 18 19  1  0
 18 20  2  0
 10 21  1  0
 21 22  1  0
 22 23  2  0
 23 24  1  0
 24 25  2  0
 25 26  1  0
 25 27  1  0
 27 28  2  0
 21 29  2  0
  7 30  1  0
 30 31  2  0
 31  4  1  0
 29  8  1  0
 20 13  1  0
 28 22  1  0
  5 32  1  0
  6 33  1  0
  9 34  1  0
 11 35  1  0
 11 36  1  0
 12 37  1  0
 14 38  1  0
 17 39  1  0
 20 40  1  0
 23 41  1  0
 24 42  1  0
 27 43  1  0
 28 44  1  0
 30 45  1  0
 31 46  1  0
M  CHG  1   3  -1
M  END
>  <meeko>  (17) 
{"is_sidechain": [false], "free_energy": -5.956, "intermolecular_energy": -7.64, "internal_energy": -1.621}

> <PREPARED_BY>
siam chowdhury
Computational and Medicinal Chemistry
[Dr. Alam's Research Team] www.alamresearch.org
Arkansas State University

$$$$
20sa23_out
     RDKit          3D

 46 49  0  0  0  0  0  0  0  0999 V2000
    5.5990   21.5140   27.1870 O   0  0  0  0  0  0  0  0  0  0  0  0
    6.1200   20.4480   27.4570 C   0  0  0  0  0  0  0  0  0  0  0  0
    5.6680   19.2620   26.9970 O   0  0  0  0  0  0  0  0  0  0  0  0
    7.3020   20.3300   28.3450 C   0  0  0  0  0  0  0  0  0  0  0  0
    8.5370   20.8130   27.8960 C   0  0  0  0  0  0  0  0  0  0  0  0
    9.6800   20.6850   28.6960 C   0  0  0  0  0  0  0  0  0  0  0  0
    9.5940   20.0570   29.9470 C   0  0  0  0  0  0  0  0  0  0  0  0
   10.7620   19.8790   30.7430 N   0  0  0  0  0  0  0  0  0  0  0  0
   11.2780   18.6850   31.1790 C   0  0  0  0  0  0  0  0  0  0  0  0
   12.4530   18.9580   31.8390 C   0  0  0  0  0  0  0  0  0  0  0  0
   13.4000   17.9450   32.3820 C   0  0  0  0  0  0  0  0  0  0  0  0
   13.9660   18.2850   33.6880 N   0  0  0  0  0  0  0  0  0  0  0  0
   13.7440   17.4000   34.7480 C   0  0  0  0  0  0  0  0  0  0  0  0
   12.7900   16.3850   34.5980 C   0  0  0  0  0  0  0  0  0  0  0  0
   12.5140   15.5000   35.6450 C   0  0  0  0  0  0  0  0  0  0  0  0
   11.3710   14.2350   35.4110 Cl  0  0  0  0  0  0  0  0  0  0  0  0
   13.1530   15.6300   36.8720 C   0  0  0  0  0  0  0  0  0  0  0  0
   14.0570   16.6700   37.0490 C   0  0  0  0  0  0  0  0  0  0  0  0
   14.8400   16.8730   38.5690 Cl  0  0  0  0  0  0  0  0  0  0  0  0
   14.3380   17.5550   36.0080 C   0  0  0  0  0  0  0  0  0  0  0  0
   12.5480   20.3820   31.8390 C   0  0  0  0  0  0  0  0  0  0  0  0
   13.5800   21.2230   32.4650 C   0  0  0  0  0  0  0  0  0  0  0  0
   13.2870   22.0080   33.5940 C   0  0  0  0  0  0  0  0  0  0  0  0
   14.2730   22.7840   34.2080 C   0  0  0  0  0  0  0  0  0  0  0  0
   15.5550   22.8000   33.6820 C   0  0  0  0  0  0  0  0  0  0  0  0
   16.4990   23.5490   34.2640 F   0  0  0  0  0  0  0  0  0  0  0  0
   15.8680   22.0510   32.5520 C   0  0  0  0  0  0  0  0  0  0  0  0
   14.8830   21.2640   31.9450 C   0  0  0  0  0  0  0  0  0  0  0  0
   11.5350   20.9210   31.1360 N   0  0  0  0  0  0  0  0  0  0  0  0
    8.3510   19.5730   30.3890 C   0  0  0  0  0  0  0  0  0  0  0  0
    7.2140   19.6990   29.5890 C   0  0  0  0  0  0  0  0  0  0  0  0
    8.6103   21.2954   26.9101 H   0  0  0  0  0  0  0  0  0  0  0  0
   10.6451   21.0772   28.3428 H   0  0  0  0  0  0  0  0  0  0  0  0
   10.8329   17.6905   31.0281 H   0  0  0  0  0  0  0  0  0  0  0  0
   12.8638   16.9893   32.4778 H   0  0  0  0  0  0  0  0  0  0  0  0
   14.2436   17.8949   31.6778 H   0  0  0  0  0  0  0  0  0  0  0  0
   14.4870   19.1110   33.8170 H   0  0  0  0  0  0  0  0  0  0  0  0
   12.2512   16.2829   33.6445 H   0  0  0  0  0  0  0  0  0  0  0  0
   12.9468   14.9223   37.6885 H   0  0  0  0  0  0  0  0  0  0  0  0
   15.0366   18.3874   36.1786 H   0  0  0  0  0  0  0  0  0  0  0  0
   12.2648   22.0112   34.0004 H   0  0  0  0  0  0  0  0  0  0  0  0
   14.0336   23.3780   35.1024 H   0  0  0  0  0  0  0  0  0  0  0  0
   16.8864   22.0774   32.1372 H   0  0  0  0  0  0  0  0  0  0  0  0
   15.1322   20.6720   31.0520 H   0  0  0  0  0  0  0  0  0  0  0  0
    8.2732   19.0904   31.3744 H   0  0  0  0  0  0  0  0  0  0  0  0
    6.2492   19.3018   29.9375 H   0  0  0  0  0  0  0  0  0  0  0  0
  1  2  2  0
  2  3  1  0
  2  4  1  0
  4  5  2  0
  5  6  1  0
  6  7  2  0
  7  8  1  0
  8  9  1  0
  9 10  2  0
 10 11  1  0
 11 12  1  0
 12 13  1  0
 13 14  2  0
 14 15  1  0
 15 16  1  0
 15 17  2  0
 17 18  1  0
 18 19  1  0
 18 20  2  0
 10 21  1  0
 21 22  1  0
 22 23  2  0
 23 24  1  0
 24 25  2  0
 25 26  1  0
 25 27  1  0
 27 28  2  0
 21 29  2  0
  7 30  1  0
 30 31  2  0
 31  4  1  0
 29  8  1  0
 20 13  1  0
 28 22  1  0
  5 32  1  0
  6 33  1  0
  9 34  1  0
 11 35  1  0
 11 36  1  0
 12 37  1  0
 14 38  1  0
 17 39  1  0
 20 40  1  0
 23 41  1  0
 24 42  1  0
 27 43  1  0
 28 44  1  0
 30 45  1  0
 31 46  1  0
M  CHG  1   3  -1
M  END
>  <meeko>  (18) 
{"is_sidechain": [false], "free_energy": -5.944, "intermolecular_energy": -8.332, "internal_energy": -0.913}

> <PREPARED_BY>
siam chowdhury
Computational and Medicinal Chemistry
[Dr. Alam's Research Team] www.alamresearch.org
Arkansas State University

$$$$
20sa23_out
     RDKit          3D

 46 49  0  0  0  0  0  0  0  0999 V2000
   15.6240   20.6840   32.5620 O   0  0  0  0  0  0  0  0  0  0  0  0
   14.9590   19.6910   32.3380 C   0  0  0  0  0  0  0  0  0  0  0  0
   15.4370   18.4340   32.4580 O   0  0  0  0  0  0  0  0  0  0  0  0
   13.5490   19.7490   31.8820 C   0  0  0  0  0  0  0  0  0  0  0  0
   13.0170   20.9820   31.4820 C   0  0  0  0  0  0  0  0  0  0  0  0
   11.6790   21.0780   31.0790 C   0  0  0  0  0  0  0  0  0  0  0  0
   10.8600   19.9400   31.0900 C   0  0  0  0  0  0  0  0  0  0  0  0
    9.4850   20.0410   30.7290 N   0  0  0  0  0  0  0  0  0  0  0  0
    8.6660   21.1220   30.9350 C   0  0  0  0  0  0  0  0  0  0  0  0
    7.4500   20.8340   30.3610 C   0  0  0  0  0  0  0  0  0  0  0  0
    6.2970   21.7700   30.2540 C   0  0  0  0  0  0  0  0  0  0  0  0
    6.2990   22.5970   29.0460 N   0  0  0  0  0  0  0  0  0  0  0  0
    5.3230   22.3410   28.0770 C   0  0  0  0  0  0  0  0  0  0  0  0
    4.0220   22.0230   28.4890 C   0  0  0  0  0  0  0  0  0  0  0  0
    3.0260   21.7270   27.5530 C   0  0  0  0  0  0  0  0  0  0  0  0
    1.4270   21.3890   28.0900 Cl  0  0  0  0  0  0  0  0  0  0  0  0
    3.3130   21.7060   26.1930 C   0  0  0  0  0  0  0  0  0  0  0  0
    4.6140   21.9600   25.7790 C   0  0  0  0  0  0  0  0  0  0  0  0
    5.0040   21.9090   24.1030 Cl  0  0  0  0  0  0  0  0  0  0  0  0
    5.6120   22.2590   26.7080 C   0  0  0  0  0  0  0  0  0  0  0  0
    7.5780   19.4940   29.8890 C   0  0  0  0  0  0  0  0  0  0  0  0
    6.5540   18.6570   29.2420 C   0  0  0  0  0  0  0  0  0  0  0  0
    6.1060   18.9400   27.9400 C   0  0  0  0  0  0  0  0  0  0  0  0
    5.1570   18.1300   27.3120 C   0  0  0  0  0  0  0  0  0  0  0  0
    4.6290   17.0440   27.9940 C   0  0  0  0  0  0  0  0  0  0  0  0
    3.7140   16.2720   27.3970 F   0  0  0  0  0  0  0  0  0  0  0  0
    5.0370   16.7540   29.2920 C   0  0  0  0  0  0  0  0  0  0  0  0
    5.9970   17.5590   29.9150 C   0  0  0  0  0  0  0  0  0  0  0  0
    8.8310   19.0440   30.0840 N   0  0  0  0  0  0  0  0  0  0  0  0
   11.4000   18.7070   31.4950 C   0  0  0  0  0  0  0  0  0  0  0  0
   12.7330   18.6140   31.8990 C   0  0  0  0  0  0  0  0  0  0  0  0
   13.6534   21.8792   31.4845 H   0  0  0  0  0  0  0  0  0  0  0  0
   11.2707   22.0463   30.7538 H   0  0  0  0  0  0  0  0  0  0  0  0
    8.9331   22.0495   31.4627 H   0  0  0  0  0  0  0  0  0  0  0  0
    5.3706   21.1770   30.2633 H   0  0  0  0  0  0  0  0  0  0  0  0
    6.3731   22.4604   31.1070 H   0  0  0  0  0  0  0  0  0  0  0  0
    6.9650   23.3100   28.9190 H   0  0  0  0  0  0  0  0  0  0  0  0
    3.7811   22.0060   29.5622 H   0  0  0  0  0  0  0  0  0  0  0  0
    2.5234   21.4919   25.4576 H   0  0  0  0  0  0  0  0  0  0  0  0
    6.6410   22.4329   26.3603 H   0  0  0  0  0  0  0  0  0  0  0  0
    6.5094   19.8136   27.4070 H   0  0  0  0  0  0  0  0  0  0  0  0
    4.8312   18.3517   26.2850 H   0  0  0  0  0  0  0  0  0  0  0  0
    4.6063   15.8946   29.8268 H   0  0  0  0  0  0  0  0  0  0  0  0
    6.3180   17.3290   30.9417 H   0  0  0  0  0  0  0  0  0  0  0  0
   10.7667   17.8076   31.4936 H   0  0  0  0  0  0  0  0  0  0  0  0
   13.1412   17.6479   32.2306 H   0  0  0  0  0  0  0  0  0  0  0  0
  1  2  2  0
  2  3  1  0
  2  4  1  0
  4  5  2  0
  5  6  1  0
  6  7  2  0
  7  8  1  0
  8  9  1  0
  9 10  2  0
 10 11  1  0
 11 12  1  0
 12 13  1  0
 13 14  2  0
 14 15  1  0
 15 16  1  0
 15 17  2  0
 17 18  1  0
 18 19  1  0
 18 20  2  0
 10 21  1  0
 21 22  1  0
 22 23  2  0
 23 24  1  0
 24 25  2  0
 25 26  1  0
 25 27  1  0
 27 28  2  0
 21 29  2  0
  7 30  1  0
 30 31  2  0
 31  4  1  0
 29  8  1  0
 20 13  1  0
 28 22  1  0
  5 32  1  0
  6 33  1  0
  9 34  1  0
 11 35  1  0
 11 36  1  0
 12 37  1  0
 14 38  1  0
 17 39  1  0
 20 40  1  0
 23 41  1  0
 24 42  1  0
 27 43  1  0
 28 44  1  0
 30 45  1  0
 31 46  1  0
M  CHG  1   3  -1
M  END
>  <meeko>  (19) 
{"is_sidechain": [false], "free_energy": -5.942, "intermolecular_energy": -7.626, "internal_energy": -1.616}

> <PREPARED_BY>
siam chowdhury
Computational and Medicinal Chemistry
[Dr. Alam's Research Team] www.alamresearch.org
Arkansas State University

$$$$
20sa23_out
     RDKit          3D

 46 49  0  0  0  0  0  0  0  0999 V2000
    6.0120   13.8460   31.1050 O   0  0  0  0  0  0  0  0  0  0  0  0
    6.3850   14.2040   32.2060 C   0  0  0  0  0  0  0  0  0  0  0  0
    5.5900   14.2040   33.2970 O   0  0  0  0  0  0  0  0  0  0  0  0
    7.7560   14.7060   32.4700 C   0  0  0  0  0  0  0  0  0  0  0  0
    8.2920   14.5650   33.7560 C   0  0  0  0  0  0  0  0  0  0  0  0
    9.5700   15.0590   34.0480 C   0  0  0  0  0  0  0  0  0  0  0  0
   10.3120   15.7140   33.0550 C   0  0  0  0  0  0  0  0  0  0  0  0
   11.5910   16.2640   33.3600 N   0  0  0  0  0  0  0  0  0  0  0  0
   12.4880   15.7810   34.2780 C   0  0  0  0  0  0  0  0  0  0  0  0
   13.6230   16.5530   34.1930 C   0  0  0  0  0  0  0  0  0  0  0  0
   14.8920   16.3160   34.9340 C   0  0  0  0  0  0  0  0  0  0  0  0
   14.8580   16.7220   36.3400 N   0  0  0  0  0  0  0  0  0  0  0  0
   14.7810   18.0890   36.6240 C   0  0  0  0  0  0  0  0  0  0  0  0
   13.7650   18.5520   37.4720 C   0  0  0  0  0  0  0  0  0  0  0  0
   13.6330   19.9140   37.7540 C   0  0  0  0  0  0  0  0  0  0  0  0
   12.4050   20.4440   38.8370 Cl  0  0  0  0  0  0  0  0  0  0  0  0
   14.4830   20.8470   37.1710 C   0  0  0  0  0  0  0  0  0  0  0  0
   15.4540   20.4030   36.2830 C   0  0  0  0  0  0  0  0  0  0  0  0
   16.5010   21.5390   35.5220 Cl  0  0  0  0  0  0  0  0  0  0  0  0
   15.5930   19.0440   35.9990 C   0  0  0  0  0  0  0  0  0  0  0  0
   13.3040   17.5650   33.2380 C   0  0  0  0  0  0  0  0  0  0  0  0
   14.1370   18.6980   32.8050 C   0  0  0  0  0  0  0  0  0  0  0  0
   13.6870   20.0230   32.9520 C   0  0  0  0  0  0  0  0  0  0  0  0
   14.4870   21.1020   32.5690 C   0  0  0  0  0  0  0  0  0  0  0  0
   15.7340   20.8630   32.0120 C   0  0  0  0  0  0  0  0  0  0  0  0
   16.4990   21.8960   31.6380 F   0  0  0  0  0  0  0  0  0  0  0  0
   16.1950   19.5630   31.8340 C   0  0  0  0  0  0  0  0  0  0  0  0
   15.3980   18.4820   32.2290 C   0  0  0  0  0  0  0  0  0  0  0  0
   12.0840   17.3490   32.7140 N   0  0  0  0  0  0  0  0  0  0  0  0
    9.7660   15.8540   31.7680 C   0  0  0  0  0  0  0  0  0  0  0  0
    8.4920   15.3620   31.4790 C   0  0  0  0  0  0  0  0  0  0  0  0
    7.7066   14.0638   34.5409 H   0  0  0  0  0  0  0  0  0  0  0  0
    9.9913   14.9330   35.0563 H   0  0  0  0  0  0  0  0  0  0  0  0
   12.3288   14.9313   34.9581 H   0  0  0  0  0  0  0  0  0  0  0  0
   15.1187   15.2404   34.8922 H   0  0  0  0  0  0  0  0  0  0  0  0
   15.6593   16.9361   34.4474 H   0  0  0  0  0  0  0  0  0  0  0  0
   14.8870   16.0540   37.0630 H   0  0  0  0  0  0  0  0  0  0  0  0
   13.0630   17.8339   37.9209 H   0  0  0  0  0  0  0  0  0  0  0  0
   14.3882   21.9168   37.4087 H   0  0  0  0  0  0  0  0  0  0  0  0
   16.3521   18.7175   35.2729 H   0  0  0  0  0  0  0  0  0  0  0  0
   12.6894   20.2121   33.3752 H   0  0  0  0  0  0  0  0  0  0  0  0
   14.1305   22.1333   32.7082 H   0  0  0  0  0  0  0  0  0  0  0  0
   17.1829   19.3847   31.3842 H   0  0  0  0  0  0  0  0  0  0  0  0
   15.7636   17.4543   32.0866 H   0  0  0  0  0  0  0  0  0  0  0  0
   10.3478   16.3559   30.9809 H   0  0  0  0  0  0  0  0  0  0  0  0
    8.0676   15.4904   30.4723 H   0  0  0  0  0  0  0  0  0  0  0  0
  1  2  2  0
  2  3  1  0
  2  4  1  0
  4  5  2  0
  5  6  1  0
  6  7  2  0
  7  8  1  0
  8  9  1  0
  9 10  2  0
 10 11  1  0
 11 12  1  0
 12 13  1  0
 13 14  2  0
 14 15  1  0
 15 16  1  0
 15 17  2  0
 17 18  1  0
 18 19  1  0
 18 20  2  0
 10 21  1  0
 21 22  1  0
 22 23  2  0
 23 24  1  0
 24 25  2  0
 25 26  1  0
 25 27  1  0
 27 28  2  0
 21 29  2  0
  7 30  1  0
 30 31  2  0
 31  4  1  0
 29  8  1  0
 20 13  1  0
 28 22  1  0
  5 32  1  0
  6 33  1  0
  9 34  1  0
 11 35  1  0
 11 36  1  0
 12 37  1  0
 14 38  1  0
 17 39  1  0
 20 40  1  0
 23 41  1  0
 24 42  1  0
 27 43  1  0
 28 44  1  0
 30 45  1  0
 31 46  1  0
M  CHG  1   3  -1
M  END
>  <meeko>  (20) 
{"is_sidechain": [false], "free_energy": -3.461, "intermolecular_energy": -3.941, "internal_energy": -1.951}

> <PREPARED_BY>
siam chowdhury
Computational and Medicinal Chemistry
[Dr. Alam's Research Team] www.alamresearch.org
Arkansas State University

$$$$
