@<TRIPOS>MOLECULE
FMN
   52    54     1     0     0
SMALL
bcc


@<TRIPOS>ATOM
      1 N            7.4280    11.1610    32.2960 nc         1 FMN      -0.536400
      2 C            8.3190    11.1720    31.2530 c          1 FMN       0.817900
      3 O            7.9040    11.1070    30.1440 o          1 FMN      -0.788500
      4 N1           9.6690    11.2540    31.4930 ns         1 FMN      -0.620500
      5 C1          10.1020    11.3160    32.7600 c          1 FMN       0.619000
      6 O1          11.2840    11.3650    32.9680 o          1 FMN      -0.735500
      7 C2           9.2010    11.3020    33.8500 cd         1 FMN       0.144800
      8 N2           9.6430    11.3670    35.1140 nc         1 FMN      -0.731000
      9 C3           8.7510    11.3490    36.1530 ca         1 FMN       0.445600
     10 C4           9.2010    11.3970    37.4860 ca         1 FMN      -0.330300
     11 C5           8.3080    11.3630    38.5470 ca         1 FMN      -0.019300
     12 C6           8.8060    11.4190    39.9950 c3         1 FMN      -0.040800
     13 C7           6.9230    11.2820    38.3100 ca         1 FMN      -0.378300
     14 C8           5.9440    11.2460    39.4770 c3         1 FMN       0.021200
     15 C9           6.4590    11.2390    37.0000 ca         1 FMN      -0.056000
     16 C10          7.3580    11.2560    35.9360 ca         1 FMN      -0.293600
     17 N3           6.9070    11.2150    34.6320 na         1 FMN      -0.079100
     18 C11          7.8550    11.2180    33.5540 cd         1 FMN       0.038400
     19 C12          5.4650    11.0930    34.3370 c3         1 FMN      -0.024700
     20 C13          5.1130     9.5960    34.4720 c3         1 FMN       0.078100
     21 O2           5.7040     8.8110    33.4620 oh         1 FMN      -0.650800
     22 C14          3.6100     9.3420    34.4350 c3         1 FMN       0.127100
     23 O3           3.0830     9.6610    33.1670 oh         1 FMN      -0.628800
     24 C15          2.8470    10.0660    35.5520 c3         1 FMN       0.107100
     25 O4           3.4830     9.8460    36.7890 oh         1 FMN      -0.635800
     26 C16          1.4310     9.5280    35.5830 c3         1 FMN       0.167400
     27 O5           0.6580    10.2040    36.5380 os         1 FMN      -0.591200
     28 P            0.4680     9.5640    38.0370 p5         1 FMN       1.648500
     29 O6           0.2510     8.0680    37.9320 o          1 FMN      -0.846300
     30 O7           1.7290     9.8790    38.8230 oh         1 FMN      -0.763900
     31 O8          -0.7290    10.2510    38.6360 oh         1 FMN      -0.763900
     32 H           10.3090    11.2670    30.7450 hn         1 FMN       0.292500
     33 H1          10.2130    11.4590    37.6770 ha         1 FMN       0.108000
     34 H2           9.8740    11.4780    40.0030 hc         1 FMN       0.018367
     35 H3           8.4940    10.5370    40.5140 hc         1 FMN       0.018367
     36 H4           8.3980    12.2810    40.4800 hc         1 FMN       0.018367
     37 H5           6.4860    11.2880    40.3990 hc         1 FMN      -0.006633
     38 H6           5.3760    10.3400    39.4380 hc         1 FMN      -0.006633
     39 H7           5.2830    12.0850    39.4140 hc         1 FMN      -0.006633
     40 H8           5.4450    11.1940    36.8150 ha         1 FMN       0.088000
     41 H9           5.2610    11.4320    33.3430 h1         1 FMN       0.056200
     42 H10          4.8820    11.6890    35.0080 h1         1 FMN       0.056200
     43 H11          5.5030     9.3120    35.4270 h1         1 FMN       0.075700
     44 H12          5.3470     9.0720    32.5990 ho         1 FMN       0.447000
     45 H13          3.4710     8.2960    34.6130 h1         1 FMN       0.042700
     46 H14          3.2040    10.6080    32.9960 ho         1 FMN       0.420000
     47 H15          2.8320    11.1200    35.3690 h1         1 FMN       0.092700
     48 H16          3.5080     8.8940    36.9750 ho         1 FMN       0.462000
     49 H17          1.4580     8.4870    35.8280 h1         1 FMN       0.063200
     50 H18          0.9890     9.6750    34.6200 h1         1 FMN       0.063200
     51 H19          2.4850     9.4250    38.4180 ho         1 FMN       0.497500
     52 H20         -1.5190    10.0340    38.1170 ho         1 FMN       0.497500
@<TRIPOS>BOND
     1     1     2 1   
     2     1    18 2   
     3     2     3 2   
     4     2     4 1   
     5     4     5 1   
     6     5     6 2   
     7     5     7 1   
     8     7     8 2   
     9     7    18 1   
    10     8     9 1   
    11     9    10 ar  
    12     9    16 ar  
    13    10    11 ar  
    14    11    12 1   
    15    11    13 ar  
    16    13    14 1   
    17    13    15 ar  
    18    15    16 ar  
    19    16    17 1   
    20    17    18 1   
    21    17    19 1   
    22    19    20 1   
    23    20    21 1   
    24    20    22 1   
    25    22    23 1   
    26    22    24 1   
    27    24    25 1   
    28    24    26 1   
    29    26    27 1   
    30    27    28 1   
    31    28    29 2   
    32    28    30 1   
    33    28    31 1   
    34     4    32 1   
    35    10    33 1   
    36    12    34 1   
    37    12    35 1   
    38    12    36 1   
    39    14    37 1   
    40    14    38 1   
    41    14    39 1   
    42    15    40 1   
    43    19    41 1   
    44    19    42 1   
    45    20    43 1   
    46    21    44 1   
    47    22    45 1   
    48    23    46 1   
    49    24    47 1   
    50    25    48 1   
    51    26    49 1   
    52    26    50 1   
    53    30    51 1   
    54    31    52 1   
@<TRIPOS>SUBSTRUCTURE
     1 FMN         1 TEMP              0 ****  ****    0 ROOT
