@<TRIPOS>MOLECULE
FMN
 52 54 0 0 0
SMALL
GASTEIGER

@<TRIPOS>ATOM
      1 N           7.4280   11.1610   32.2960 N.ar    1  UNL1       -0.1733
      2 C           8.3190   11.1720   31.2530 C.ar    1  UNL1        0.3505
      3 O           7.9040   11.1070   30.1440 O.2     1  UNL1       -0.2446
      4 N           9.6690   11.2540   31.4930 N.ar    1  UNL1       -0.2717
      5 C          10.1020   11.3160   32.7600 C.ar    1  UNL1        0.2817
      6 O          11.2840   11.3650   32.9680 O.2     1  UNL1       -0.2653
      7 C           9.2010   11.3020   33.8500 C.ar    1  UNL1        0.1712
      8 N           9.6430   11.3670   35.1140 N.ar    1  UNL1       -0.2368
      9 C           8.7510   11.3490   36.1530 C.ar    1  UNL1        0.0886
     10 C           9.2010   11.3970   37.4860 C.ar    1  UNL1       -0.0311
     11 C           8.3080   11.3630   38.5470 C.ar    1  UNL1       -0.0454
     12 C           8.8060   11.4190   39.9950 C.3     1  UNL1       -0.0394
     13 C           6.9230   11.2820   38.3100 C.ar    1  UNL1       -0.0455
     14 C           5.9440   11.2460   39.4770 C.3     1  UNL1       -0.0394
     15 C           6.4590   11.2390   37.0000 C.ar    1  UNL1       -0.0329
     16 C           7.3580   11.2560   35.9360 C.ar    1  UNL1        0.0694
     17 N           6.9070   11.2150   34.6320 N.ar    1  UNL1       -0.3195
     18 C           7.8550   11.2180   33.5540 C.ar    1  UNL1        0.1705
     19 C           5.4650   11.0930   34.3370 C.3     1  UNL1        0.0538
     20 C           5.1130    9.5960   34.4720 C.3     1  UNL1        0.1014
     21 O           5.7040    8.8110   33.4620 O.3     1  UNL1       -0.3874
     22 C           3.6100    9.3420   34.4350 C.3     1  UNL1        0.1106
     23 O           3.0830    9.6610   33.1670 O.3     1  UNL1       -0.3865
     24 C           2.8470   10.0660   35.5520 C.3     1  UNL1        0.1073
     25 O           3.4830    9.8460   36.7890 O.3     1  UNL1       -0.3868
     26 C           1.4310    9.5280   35.5830 C.3     1  UNL1        0.0875
     27 O           0.6580   10.2040   36.5380 O.3     1  UNL1       -0.2841
     28 P           0.4680    9.5640   38.0370 P.3     1  UNL1        0.4724
     29 O           0.2510    8.0680   37.9320 O.2     1  UNL1       -0.2275
     30 O           1.7290    9.8790   38.8230 O.3     1  UNL1       -0.3026
     31 O          -0.7290   10.2510   38.6360 O.3     1  UNL1       -0.3026
     32 H          10.3093   11.2670   30.7452 H       1  UNL1        0.1735
     33 H          10.2132   11.4586   37.6773 H       1  UNL1        0.0642
     34 H           9.8743   11.4780   40.0027 H       1  UNL1        0.0278
     35 H           8.4938   10.5369   40.5139 H       1  UNL1        0.0278
     36 H           8.3976   12.2812   40.4795 H       1  UNL1        0.0278
     37 H           6.4860   11.2878   40.3986 H       1  UNL1        0.0278
     38 H           5.3758   10.3402   39.4381 H       1  UNL1        0.0278
     39 H           5.2827   12.0848   39.4138 H       1  UNL1        0.0278
     40 H           5.4447   11.1943   36.8152 H       1  UNL1        0.0641
     41 H           5.2615   11.4320   33.3427 H       1  UNL1        0.0519
     42 H           4.8819   11.6888   35.0078 H       1  UNL1        0.0519
     43 H           5.5030    9.3123   35.4271 H       1  UNL1        0.0638
     44 H           5.3469    9.0724   32.5988 H       1  UNL1        0.2100
     45 H           3.4714    8.2961   34.6130 H       1  UNL1        0.0646
     46 H           3.2037   10.6081   32.9956 H       1  UNL1        0.2100
     47 H           2.8316   11.1201   35.3688 H       1  UNL1        0.0643
     48 H           3.5078    8.8943   36.9751 H       1  UNL1        0.2100
     49 H           1.4575    8.4867   35.8276 H       1  UNL1        0.0592
     50 H           0.9889    9.6754   34.6198 H       1  UNL1        0.0592
     51 H           2.4845    9.4254   38.4176 H       1  UNL1        0.2220
     52 H          -1.5194   10.0343   38.1171 H       1  UNL1        0.2220
@<TRIPOS>BOND
     1     1     2   ar
     2     1    18   ar
     3     2     3    2
     4     2     4   ar
     5     4     5   ar
     6     5     6    2
     7     5     7   ar
     8     7     8   ar
     9     7    18    1
    10     8     9   ar
    11     9    10   ar
    12     9    16   ar
    13    10    11   ar
    14    11    12    1
    15    11    13   ar
    16    13    14    1
    17    13    15   ar
    18    15    16   ar
    19    16    17   ar
    20    17    18   ar
    21    17    19    1
    22    19    20    1
    23    20    21    1
    24    20    22    1
    25    22    23    1
    26    22    24    1
    27    24    25    1
    28    24    26    1
    29    26    27    1
    30    27    28    1
    31    28    29    2
    32    28    30    1
    33    28    31    1
    34     4    32    1
    35    10    33    1
    36    12    34    1
    37    12    35    1
    38    12    36    1
    39    14    37    1
    40    14    38    1
    41    14    39    1
    42    15    40    1
    43    19    41    1
    44    19    42    1
    45    20    43    1
    46    21    44    1
    47    22    45    1
    48    23    46    1
    49    24    47    1
    50    25    48    1
    51    26    49    1
    52    26    50    1
    53    30    51    1
    54    31    52    1
