
  ACCLDraw09082613152D

 31 34  0  0  0  0  0  0  0  0999 V2000
    8.2088   -4.8384    0.0000 O   0  0  0  0  0  0  0  0  0  0  0  0
    7.6889   -5.7389    0.0000 O   0  0  0  0  0  0  0  0  0  0  0  0
    8.2088   -5.4388    0.0000 C   0  0  0  0  0  0  0  0  0  0  0  0
   13.6349   -8.9185    0.0000 F   0  0  0  0  0  0  0  0  0  0  0  0
   11.8349   -8.9219    0.0000 C   0  0  0  0  0  0  0  0  0  0  0  0
   12.1378   -9.4394    0.0000 C   0  0  0  0  0  0  0  0  0  0  0  0
   12.7348   -9.4383    0.0000 C   0  0  0  0  0  0  0  0  0  0  0  0
   13.0349   -8.9185    0.0000 C   0  0  0  0  0  0  0  0  0  0  0  0
   12.7363   -8.4002    0.0000 C   0  0  0  0  0  0  0  0  0  0  0  0
   12.1362   -8.4000    0.0000 C   0  0  0  0  0  0  0  0  0  0  0  0
   11.8362   -7.8804    0.0000 N   0  0  3  0  0  0  0  0  0  0  0  0
   11.2362   -7.8804    0.0000 C   0  0  0  0  0  0  0  0  0  0  0  0
   13.6347   -6.8419    0.0000 F   0  0  0  0  0  0  0  0  0  0  0  0
   12.1376   -7.3629    0.0000 C   0  0  0  0  0  0  0  0  0  0  0  0
   12.7372   -7.3595    0.0000 C   0  0  0  0  0  0  0  0  0  0  0  0
   13.0347   -6.8419    0.0000 C   0  0  0  0  0  0  0  0  0  0  0  0
   12.7346   -6.3221    0.0000 C   0  0  0  0  0  0  0  0  0  0  0  0
   12.1364   -6.3215    0.0000 C   0  0  0  0  0  0  0  0  0  0  0  0
   11.8363   -6.8411    0.0000 C   0  0  0  0  0  0  0  0  0  0  0  0
   10.8347   -6.3951    0.0000 N   0  0  0  0  0  0  0  0  0  0  0  0
   11.2363   -6.8411    0.0000 C   0  0  0  0  0  0  0  0  0  0  0  0
   10.9362   -7.3608    0.0000 C   0  0  0  0  0  0  0  0  0  0  0  0
   10.3492   -7.2360    0.0000 C   0  0  0  0  0  0  0  0  0  0  0  0
   10.2865   -6.6392    0.0000 N   0  0  3  0  0  0  0  0  0  0  0  0
    8.7287   -6.3417    0.0000 C   0  0  0  0  0  0  0  0  0  0  0  0
    9.2500   -6.6386    0.0000 C   0  0  0  0  0  0  0  0  0  0  0  0
    9.7666   -6.3390    0.0000 C   0  0  0  0  0  0  0  0  0  0  0  0
    9.7666   -5.7386    0.0000 C   0  0  0  0  0  0  0  0  0  0  0  0
    9.2486   -5.4390    0.0000 C   0  0  0  0  0  0  0  0  0  0  0  0
    8.7287   -5.7389    0.0000 C   0  0  0  0  0  0  0  0  0  0  0  0
   13.0345   -9.9574    0.0000 F   0  0  0  0  0  0  0  0  0  0  0  0
  3  1  1  0  0  0  0
  3  2  2  0  0  0  0
 30  3  1  0  0  0  0
  8  4  1  0  0  0  0
 10  5  1  0  0  0  0
  5  6  2  0  0  0  0
  6  7  1  0  0  0  0
  7  8  2  0  0  0  0
  8  9  1  0  0  0  0
  9 10  2  0  0  0  0
 11 10  1  0  0  0  0
 12 11  1  0  0  0  0
 22 12  1  0  0  0  0
 16 13  1  0  0  0  0
 19 14  1  0  0  0  0
 14 15  2  0  0  0  0
 15 16  1  0  0  0  0
 16 17  2  0  0  0  0
 17 18  1  0  0  0  0
 18 19  2  0  0  0  0
 21 19  1  0  0  0  0
 20 24  1  0  0  0  0
 21 20  2  0  0  0  0
 22 21  1  0  0  0  0
 23 22  2  0  0  0  0
 23 24  1  0  0  0  0
 27 24  1  0  0  0  0
 30 25  1  0  0  0  0
 25 26  2  0  0  0  0
 26 27  1  0  0  0  0
 27 28  2  0  0  0  0
 28 29  1  0  0  0  0
 29 30  2  0  0  0  0
  7 31  1  0  0  0  0
M  END
