
  ACCLDraw09082613152D

 31 34  0  0  0  0  0  0  0  0999 V2000
    5.8063   -6.6642    0.0000 O   0  0  0  0  0  0  0  0  0  0  0  0
    5.2863   -7.5648    0.0000 O   0  0  0  0  0  0  0  0  0  0  0  0
    5.8063   -7.2646    0.0000 C   0  0  0  0  0  0  0  0  0  0  0  0
   11.2323  -10.7444    0.0000 Cl  0  0  0  0  0  0  0  0  0  0  0  0
    9.4324  -10.7477    0.0000 C   0  0  0  0  0  0  0  0  0  0  0  0
    9.7352  -11.2653    0.0000 C   0  0  0  0  0  0  0  0  0  0  0  0
   10.3323  -11.2641    0.0000 C   0  0  0  0  0  0  0  0  0  0  0  0
   10.6323  -10.7444    0.0000 C   0  0  0  0  0  0  0  0  0  0  0  0
   10.3337  -10.2260    0.0000 C   0  0  0  0  0  0  0  0  0  0  0  0
    9.7337  -10.2259    0.0000 C   0  0  0  0  0  0  0  0  0  0  0  0
    9.4337   -9.7062    0.0000 N   0  0  3  0  0  0  0  0  0  0  0  0
    8.8337   -9.7062    0.0000 C   0  0  0  0  0  0  0  0  0  0  0  0
   11.2322   -8.6677    0.0000 F   0  0  0  0  0  0  0  0  0  0  0  0
    9.7350   -9.1888    0.0000 C   0  0  0  0  0  0  0  0  0  0  0  0
   10.3347   -9.1853    0.0000 C   0  0  0  0  0  0  0  0  0  0  0  0
   10.6322   -8.6677    0.0000 C   0  0  0  0  0  0  0  0  0  0  0  0
   10.3321   -8.1479    0.0000 C   0  0  0  0  0  0  0  0  0  0  0  0
    9.7339   -8.1474    0.0000 C   0  0  0  0  0  0  0  0  0  0  0  0
    9.4337   -8.6669    0.0000 C   0  0  0  0  0  0  0  0  0  0  0  0
    8.4322   -8.2210    0.0000 N   0  0  0  0  0  0  0  0  0  0  0  0
    8.8337   -8.6669    0.0000 C   0  0  0  0  0  0  0  0  0  0  0  0
    8.5337   -9.1866    0.0000 C   0  0  0  0  0  0  0  0  0  0  0  0
    7.9467   -9.0618    0.0000 C   0  0  0  0  0  0  0  0  0  0  0  0
    7.8840   -8.4651    0.0000 N   0  0  3  0  0  0  0  0  0  0  0  0
    6.3262   -8.1676    0.0000 C   0  0  0  0  0  0  0  0  0  0  0  0
    6.8474   -8.4645    0.0000 C   0  0  0  0  0  0  0  0  0  0  0  0
    7.3640   -8.1649    0.0000 C   0  0  0  0  0  0  0  0  0  0  0  0
    7.3640   -7.5645    0.0000 C   0  0  0  0  0  0  0  0  0  0  0  0
    6.8461   -7.2648    0.0000 C   0  0  0  0  0  0  0  0  0  0  0  0
    6.3262   -7.5648    0.0000 C   0  0  0  0  0  0  0  0  0  0  0  0
    9.4355  -11.7844    0.0000 Cl  0  0  0  0  0  0  0  0  0  0  0  0
  3  1  1  0  0  0  0
  3  2  2  0  0  0  0
 30  3  1  0  0  0  0
  8  4  1  0  0  0  0
 10  5  1  0  0  0  0
  5  6  2  0  0  0  0
  6  7  1  0  0  0  0
  7  8  2  0  0  0  0
  8  9  1  0  0  0  0
  9 10  2  0  0  0  0
 11 10  1  0  0  0  0
 12 11  1  0  0  0  0
 22 12  1  0  0  0  0
 16 13  1  0  0  0  0
 19 14  1  0  0  0  0
 14 15  2  0  0  0  0
 15 16  1  0  0  0  0
 16 17  2  0  0  0  0
 17 18  1  0  0  0  0
 18 19  2  0  0  0  0
 21 19  1  0  0  0  0
 20 24  1  0  0  0  0
 21 20  2  0  0  0  0
 22 21  1  0  0  0  0
 23 22  2  0  0  0  0
 23 24  1  0  0  0  0
 27 24  1  0  0  0  0
 30 25  1  0  0  0  0
 25 26  2  0  0  0  0
 26 27  1  0  0  0  0
 27 28  2  0  0  0  0
 28 29  1  0  0  0  0
 29 30  2  0  0  0  0
  6 31  1  0  0  0  0
M  END
