
  ACCLDraw09272601362D

 34 37  0  0  0  0  0  0  0  0999 V2000
    2.8652   -5.8071    0.0000 O   0  0  0  0  0  0  0  0  0  0  0  0
    2.3452   -6.7076    0.0000 O   0  0  0  0  0  0  0  0  0  0  0  0
    2.8652   -6.4074    0.0000 C   0  0  0  0  0  0  0  0  0  0  0  0
    8.2910   -9.8870    0.0000 C   0  0  3  0  0  0  0  0  0  0  0  0
    6.4911   -9.8903    0.0000 C   0  0  0  0  0  0  0  0  0  0  0  0
    6.7940  -10.4079    0.0000 C   0  0  0  0  0  0  0  0  0  0  0  0
    7.3910  -10.4079    0.0000 C   0  0  0  0  0  0  0  0  0  0  0  0
    7.6911   -9.8870    0.0000 C   0  0  0  0  0  0  0  0  0  0  0  0
    7.3925   -9.3685    0.0000 C   0  0  0  0  0  0  0  0  0  0  0  0
    6.7924   -9.3685    0.0000 C   0  0  0  0  0  0  0  0  0  0  0  0
    6.4924   -8.8490    0.0000 N   0  0  3  0  0  0  0  0  0  0  0  0
    5.8925   -8.8490    0.0000 C   0  0  0  0  0  0  0  0  0  0  0  0
    8.2908   -7.8104    0.0000 F   0  0  0  0  0  0  0  0  0  0  0  0
    6.7937   -8.3315    0.0000 C   0  0  0  0  0  0  0  0  0  0  0  0
    7.3934   -8.3315    0.0000 C   0  0  0  0  0  0  0  0  0  0  0  0
    7.6909   -7.8104    0.0000 C   0  0  0  0  0  0  0  0  0  0  0  0
    7.3908   -7.2907    0.0000 C   0  0  0  0  0  0  0  0  0  0  0  0
    6.7926   -7.2907    0.0000 C   0  0  0  0  0  0  0  0  0  0  0  0
    6.4925   -7.8097    0.0000 C   0  0  0  0  0  0  0  0  0  0  0  0
    5.4910   -7.3637    0.0000 N   0  0  0  0  0  0  0  0  0  0  0  0
    5.8926   -7.8097    0.0000 C   0  0  0  0  0  0  0  0  0  0  0  0
    5.5925   -8.3294    0.0000 C   0  0  0  0  0  0  0  0  0  0  0  0
    5.0055   -8.2046    0.0000 C   0  0  0  0  0  0  0  0  0  0  0  0
    4.9428   -7.6078    0.0000 N   0  0  3  0  0  0  0  0  0  0  0  0
    3.9050   -6.4077    0.0000 C   0  0  0  0  0  0  0  0  0  0  0  0
    4.4229   -6.7073    0.0000 C   0  0  0  0  0  0  0  0  0  0  0  0
    4.4229   -7.3076    0.0000 C   0  0  0  0  0  0  0  0  0  0  0  0
    3.9063   -7.6072    0.0000 C   0  0  0  0  0  0  0  0  0  0  0  0
    3.3851   -7.3103    0.0000 C   0  0  0  0  0  0  0  0  0  0  0  0
    3.3851   -6.7076    0.0000 C   0  0  0  0  0  0  0  0  0  0  0  0
    8.5908  -10.4062    0.0000 F   0  0  0  0  0  0  0  0  0  0  0  0
    8.5908   -9.3678    0.0000 F   0  0  0  0  0  0  0  0  0  0  0  0
    7.9913   -9.3678    0.0000 F   0  0  0  0  0  0  0  0  0  0  0  0
    7.6907  -10.9270    0.0000 F   0  0  0  0  0  0  0  0  0  0  0  0
  3  1  1  0  0  0  0
  3  2  2  0  0  0  0
 30  3  1  0  0  0  0
  8  4  1  0  0  0  0
 10  5  1  0  0  0  0
  5  6  2  0  0  0  0
  6  7  1  0  0  0  0
  7  8  2  0  0  0  0
  8  9  1  0  0  0  0
  9 10  2  0  0  0  0
 11 10  1  0  0  0  0
 12 11  1  0  0  0  0
 22 12  1  0  0  0  0
 16 13  1  0  0  0  0
 19 14  1  0  0  0  0
 14 15  2  0  0  0  0
 15 16  1  0  0  0  0
 16 17  2  0  0  0  0
 17 18  1  0  0  0  0
 18 19  2  0  0  0  0
 21 19  1  0  0  0  0
 20 24  1  0  0  0  0
 21 20  2  0  0  0  0
 22 21  1  0  0  0  0
 23 22  2  0  0  0  0
 23 24  1  0  0  0  0
 27 24  1  0  0  0  0
 25 30  2  0  0  0  0
 26 25  1  0  0  0  0
 27 26  2  0  0  0  0
 28 27  1  0  0  0  0
 29 28  2  0  0  0  0
 30 29  1  0  0  0  0
  4 31  1  0  0  0  0
  4 32  1  0  0  0  0
  4 33  1  0  0  0  0
  7 34  1  0  0  0  0
M  END
