
  ACCLDraw09272601362D

 34 37  0  0  0  0  0  0  0  0999 V2000
    2.1376   -5.3271    0.0000 O   0  0  0  0  0  0  0  0  0  0  0  0
    1.6176   -6.2276    0.0000 O   0  0  0  0  0  0  0  0  0  0  0  0
    2.1376   -5.9274    0.0000 C   0  0  0  0  0  0  0  0  0  0  0  0
    7.2637   -8.8879    0.0000 F   0  0  0  0  0  0  0  0  0  0  0  0
    7.8632   -8.8879    0.0000 F   0  0  0  0  0  0  0  0  0  0  0  0
    7.8632   -9.9262    0.0000 F   0  0  0  0  0  0  0  0  0  0  0  0
    7.5634   -9.4070    0.0000 C   0  0  3  0  0  0  0  0  0  0  0  0
    5.7635   -9.4103    0.0000 C   0  0  0  0  0  0  0  0  0  0  0  0
    6.0664   -9.9279    0.0000 C   0  0  0  0  0  0  0  0  0  0  0  0
    6.6634   -9.9279    0.0000 C   0  0  0  0  0  0  0  0  0  0  0  0
    6.9635   -9.4070    0.0000 C   0  0  0  0  0  0  0  0  0  0  0  0
    6.6649   -8.8886    0.0000 C   0  0  0  0  0  0  0  0  0  0  0  0
    6.0648   -8.8886    0.0000 C   0  0  0  0  0  0  0  0  0  0  0  0
    5.7648   -8.3690    0.0000 N   0  0  3  0  0  0  0  0  0  0  0  0
    5.1649   -8.3690    0.0000 C   0  0  0  0  0  0  0  0  0  0  0  0
    7.5632   -7.3304    0.0000 F   0  0  0  0  0  0  0  0  0  0  0  0
    6.0661   -7.8515    0.0000 C   0  0  0  0  0  0  0  0  0  0  0  0
    6.6658   -7.8515    0.0000 C   0  0  0  0  0  0  0  0  0  0  0  0
    6.9633   -7.3304    0.0000 C   0  0  0  0  0  0  0  0  0  0  0  0
    6.6632   -6.8108    0.0000 C   0  0  0  0  0  0  0  0  0  0  0  0
    6.0650   -6.8108    0.0000 C   0  0  0  0  0  0  0  0  0  0  0  0
    5.7649   -7.3297    0.0000 C   0  0  0  0  0  0  0  0  0  0  0  0
    4.7634   -6.8838    0.0000 N   0  0  0  0  0  0  0  0  0  0  0  0
    5.1650   -7.3297    0.0000 C   0  0  0  0  0  0  0  0  0  0  0  0
    4.8649   -7.8494    0.0000 C   0  0  0  0  0  0  0  0  0  0  0  0
    4.2779   -7.7246    0.0000 C   0  0  0  0  0  0  0  0  0  0  0  0
    4.2152   -7.1279    0.0000 N   0  0  3  0  0  0  0  0  0  0  0  0
    3.1774   -5.9277    0.0000 C   0  0  0  0  0  0  0  0  0  0  0  0
    3.6953   -6.2273    0.0000 C   0  0  0  0  0  0  0  0  0  0  0  0
    3.6953   -6.8277    0.0000 C   0  0  0  0  0  0  0  0  0  0  0  0
    3.1787   -7.1273    0.0000 C   0  0  0  0  0  0  0  0  0  0  0  0
    2.6575   -6.8304    0.0000 C   0  0  0  0  0  0  0  0  0  0  0  0
    2.6575   -6.2276    0.0000 C   0  0  0  0  0  0  0  0  0  0  0  0
    5.7667  -10.4471    0.0000 F   0  0  0  0  0  0  0  0  0  0  0  0
  3  1  1  0  0  0  0
  3  2  2  0  0  0  0
 33  3  1  0  0  0  0
  7  4  1  0  0  0  0
  7  5  1  0  0  0  0
  7  6  1  0  0  0  0
 11  7  1  0  0  0  0
 13  8  1  0  0  0  0
  8  9  2  0  0  0  0
  9 10  1  0  0  0  0
 10 11  2  0  0  0  0
 11 12  1  0  0  0  0
 12 13  2  0  0  0  0
 14 13  1  0  0  0  0
 15 14  1  0  0  0  0
 25 15  1  0  0  0  0
 19 16  1  0  0  0  0
 22 17  1  0  0  0  0
 17 18  2  0  0  0  0
 18 19  1  0  0  0  0
 19 20  2  0  0  0  0
 20 21  1  0  0  0  0
 21 22  2  0  0  0  0
 24 22  1  0  0  0  0
 23 27  1  0  0  0  0
 24 23  2  0  0  0  0
 25 24  1  0  0  0  0
 26 25  2  0  0  0  0
 26 27  1  0  0  0  0
 30 27  1  0  0  0  0
 28 33  2  0  0  0  0
 29 28  1  0  0  0  0
 30 29  2  0  0  0  0
 31 30  1  0  0  0  0
 32 31  2  0  0  0  0
 33 32  1  0  0  0  0
  9 34  1  0  0  0  0
M  END
