
  ACCLDraw09252600382D

 30 33  0  0  0  0  0  0  0  0999 V2000
    5.4598   -6.1373    0.0000 C   0  0  0  0  0  0  0  0  0  0  0  0
    6.4977   -6.1370    0.0000 C   0  0  0  0  0  0  0  0  0  0  0  0
    5.9797   -5.8374    0.0000 C   0  0  0  0  0  0  0  0  0  0  0  0
    6.4977   -6.7374    0.0000 C   0  0  0  0  0  0  0  0  0  0  0  0
    5.4598   -6.7401    0.0000 C   0  0  0  0  0  0  0  0  0  0  0  0
    5.9810   -7.0370    0.0000 C   0  0  0  0  0  0  0  0  0  0  0  0
    4.9399   -5.8371    0.0000 C   0  0  0  0  0  0  0  0  0  0  0  0
    4.4199   -6.1373    0.0000 O   0  0  0  0  0  0  0  0  0  0  0  0
    4.9399   -5.2368    0.0000 O   0  0  0  0  0  0  0  0  0  0  0  0
    7.0176   -7.0376    0.0000 N   0  0  3  0  0  0  0  0  0  0  0  0
    7.0803   -7.6344    0.0000 C   0  0  0  0  0  0  0  0  0  0  0  0
    7.6673   -7.7592    0.0000 C   0  0  0  0  0  0  0  0  0  0  0  0
    7.9674   -7.2395    0.0000 C   0  0  0  0  0  0  0  0  0  0  0  0
    7.5658   -6.7935    0.0000 N   0  0  0  0  0  0  0  0  0  0  0  0
    8.5674   -7.2395    0.0000 C   0  0  0  0  0  0  0  0  0  0  0  0
    7.9673   -8.2788    0.0000 C   0  0  0  0  0  0  0  0  0  0  0  0
    8.5673   -8.2788    0.0000 N   0  0  3  0  0  0  0  0  0  0  0  0
    8.8673   -8.7984    0.0000 C   0  0  0  0  0  0  0  0  0  0  0  0
    9.4657   -6.7205    0.0000 C   0  0  0  0  0  0  0  0  0  0  0  0
    8.8675   -6.7205    0.0000 C   0  0  0  0  0  0  0  0  0  0  0  0
    9.7658   -7.2402    0.0000 C   0  0  0  0  0  0  0  0  0  0  0  0
    8.8686   -7.7613    0.0000 C   0  0  0  0  0  0  0  0  0  0  0  0
    9.4683   -7.7613    0.0000 C   0  0  0  0  0  0  0  0  0  0  0  0
   10.3658   -7.2402    0.0000 F   0  0  0  0  0  0  0  0  0  0  0  0
    9.7660   -9.3169    0.0000 C   0  0  0  0  0  0  0  0  0  0  0  0
    9.4674   -8.7984    0.0000 C   0  0  0  0  0  0  0  0  0  0  0  0
    9.4659   -9.8378    0.0000 C   0  0  0  0  0  0  0  0  0  0  0  0
    8.5660   -9.3202    0.0000 C   0  0  0  0  0  0  0  0  0  0  0  0
    8.8689   -9.8378    0.0000 C   0  0  0  0  0  0  0  0  0  0  0  0
   10.3660   -9.3169    0.0000 F   0  0  0  0  0  0  0  0  0  0  0  0
  6  4  1  0  0  0  0
  5  6  2  0  0  0  0
  2  3  1  0  0  0  0
  1  5  1  0  0  0  0
  4  2  2  0  0  0  0
  3  1  2  0  0  0  0
  1  7  1  0  0  0  0
  7  8  2  0  0  0  0
  7  9  1  0  0  0  0
  4 10  1  0  0  0  0
 13 14  2  0  0  0  0
 12 13  1  0  0  0  0
 11 12  2  0  0  0  0
 11 10  1  0  0  0  0
 14 10  1  0  0  0  0
 13 15  1  0  0  0  0
 12 16  1  0  0  0  0
 16 17  1  0  0  0  0
 17 18  1  0  0  0  0
 23 21  1  0  0  0  0
 22 23  2  0  0  0  0
 19 20  1  0  0  0  0
 21 19  2  0  0  0  0
 20 15  2  0  0  0  0
 15 22  1  0  0  0  0
 21 24  1  0  0  0  0
 29 27  1  0  0  0  0
 28 29  2  0  0  0  0
 25 26  1  0  0  0  0
 27 25  2  0  0  0  0
 26 18  2  0  0  0  0
 18 28  1  0  0  0  0
 25 30  1  0  0  0  0
M  END
