
  ACCLDraw09272601372D

 30 33  0  0  0  0  0  0  0  0999 V2000
    1.7001   -5.7646    0.0000 O   0  0  0  0  0  0  0  0  0  0  0  0
    1.1801   -6.6651    0.0000 O   0  0  0  0  0  0  0  0  0  0  0  0
    1.7001   -6.3649    0.0000 C   0  0  0  0  0  0  0  0  0  0  0  0
    5.3260   -9.8478    0.0000 C   0  0  0  0  0  0  0  0  0  0  0  0
    5.6289  -10.3654    0.0000 C   0  0  0  0  0  0  0  0  0  0  0  0
    6.2259  -10.3654    0.0000 C   0  0  0  0  0  0  0  0  0  0  0  0
    6.5260   -9.8445    0.0000 C   0  0  0  0  0  0  0  0  0  0  0  0
    6.2274   -9.3261    0.0000 C   0  0  0  0  0  0  0  0  0  0  0  0
    5.6273   -9.3261    0.0000 C   0  0  0  0  0  0  0  0  0  0  0  0
    5.3273   -8.8065    0.0000 N   0  0  3  0  0  0  0  0  0  0  0  0
    4.7274   -8.8065    0.0000 C   0  0  0  0  0  0  0  0  0  0  0  0
    7.1257   -7.7679    0.0000 F   0  0  0  0  0  0  0  0  0  0  0  0
    5.6286   -8.2890    0.0000 C   0  0  0  0  0  0  0  0  0  0  0  0
    6.2283   -8.2890    0.0000 C   0  0  0  0  0  0  0  0  0  0  0  0
    6.5258   -7.7679    0.0000 C   0  0  0  0  0  0  0  0  0  0  0  0
    6.2257   -7.2483    0.0000 C   0  0  0  0  0  0  0  0  0  0  0  0
    5.6275   -7.2483    0.0000 C   0  0  0  0  0  0  0  0  0  0  0  0
    5.3274   -7.7672    0.0000 C   0  0  0  0  0  0  0  0  0  0  0  0
    4.3259   -7.3213    0.0000 N   0  0  0  0  0  0  0  0  0  0  0  0
    4.7275   -7.7672    0.0000 C   0  0  0  0  0  0  0  0  0  0  0  0
    4.4274   -8.2869    0.0000 C   0  0  0  0  0  0  0  0  0  0  0  0
    3.8404   -8.1621    0.0000 C   0  0  0  0  0  0  0  0  0  0  0  0
    3.7777   -7.5654    0.0000 N   0  0  3  0  0  0  0  0  0  0  0  0
    2.7399   -6.3652    0.0000 C   0  0  0  0  0  0  0  0  0  0  0  0
    3.2578   -6.6648    0.0000 C   0  0  0  0  0  0  0  0  0  0  0  0
    3.2578   -7.2652    0.0000 C   0  0  0  0  0  0  0  0  0  0  0  0
    2.7412   -7.5648    0.0000 C   0  0  0  0  0  0  0  0  0  0  0  0
    2.2200   -7.2679    0.0000 C   0  0  0  0  0  0  0  0  0  0  0  0
    2.2200   -6.6651    0.0000 C   0  0  0  0  0  0  0  0  0  0  0  0
    7.1254   -9.8445    0.0000 Br  0  0  0  0  0  0  0  0  0  0  0  0
  3  1  1  0  0  0  0
  3  2  2  0  0  0  0
 29  3  1  0  0  0  0
  9  4  1  0  0  0  0
  4  5  2  0  0  0  0
  5  6  1  0  0  0  0
  6  7  2  0  0  0  0
  7  8  1  0  0  0  0
  8  9  2  0  0  0  0
 10  9  1  0  0  0  0
 11 10  1  0  0  0  0
 21 11  1  0  0  0  0
 15 12  1  0  0  0  0
 18 13  1  0  0  0  0
 13 14  2  0  0  0  0
 14 15  1  0  0  0  0
 15 16  2  0  0  0  0
 16 17  1  0  0  0  0
 17 18  2  0  0  0  0
 20 18  1  0  0  0  0
 19 23  1  0  0  0  0
 20 19  2  0  0  0  0
 21 20  1  0  0  0  0
 22 21  2  0  0  0  0
 22 23  1  0  0  0  0
 26 23  1  0  0  0  0
 24 29  2  0  0  0  0
 25 24  1  0  0  0  0
 26 25  2  0  0  0  0
 27 26  1  0  0  0  0
 28 27  2  0  0  0  0
 29 28  1  0  0  0  0
  7 30  1  0  0  0  0
M  END
