XCJ_redock_out
     RDKit          3D

 41 44  0  0  0  0  0  0  0  0999 V2000
   14.5010   15.7440   36.9520 C   0  0  0  0  0  0  0  0  0  0  0  0
   14.2710   15.6250   35.1970 S   0  0  0  0  0  0  0  0  0  0  0  0
   14.5500   16.9240   34.6150 O   0  0  0  0  0  0  0  0  0  0  0  0
   14.9590   14.4370   34.7290 O   0  0  0  0  0  0  0  0  0  0  0  0
   12.5250   15.3310   35.0350 C   0  0  0  0  0  0  0  0  0  0  0  0
   11.7530   15.0860   36.1710 C   0  0  0  0  0  0  0  0  0  0  0  0
   10.3760   14.8550   36.0410 C   0  0  0  0  0  0  0  0  0  0  0  0
    9.7790   14.8500   34.7620 C   0  0  0  0  0  0  0  0  0  0  0  0
    8.4370   14.6500   34.4790 N   0  0  0  0  0  0  0  0  0  0  0  0
    8.2530   14.6460   33.1810 C   0  0  0  0  0  0  0  0  0  0  0  0
    7.0130   14.4530   32.6260 N   0  0  0  0  0  0  0  0  0  0  0  0
    6.7040   14.4130   31.2840 C   0  0  0  0  0  0  0  0  0  0  0  0
    7.4930   14.5650   30.3520 O   0  0  0  0  0  0  0  0  0  0  0  0
    5.2280   14.2140   30.9670 C   0  0  0  0  0  0  0  0  0  0  0  0
    4.6230   15.3230   30.1690 C   0  0  0  0  0  0  0  0  0  0  0  0
    3.5010   16.0620   30.5000 C   0  0  0  0  0  0  0  0  0  0  0  0
    3.2190   17.2660   29.3130 S   0  0  0  0  0  0  0  0  0  0  0  0
    4.5680   16.7000   28.4410 C   0  0  0  0  0  0  0  0  0  0  0  0
    4.9300   17.3030   27.2270 N   0  0  0  0  0  0  0  0  0  0  0  0
    4.9810   16.6520   26.0030 C   0  0  0  0  0  0  0  0  0  0  0  0
    5.3600   17.5410   25.0220 C   0  0  0  0  0  0  0  0  0  0  0  0
    5.5780   18.7840   25.6500 C   0  0  0  0  0  0  0  0  0  0  0  0
    5.3070   18.6170   26.9900 C   0  0  0  0  0  0  0  0  0  0  0  0
    5.2230   15.6850   28.9670 N   0  0  0  0  0  0  0  0  0  0  0  0
    9.6290   14.9600   32.2310 S   0  0  0  0  0  0  0  0  0  0  0  0
   10.5920   15.0640   33.6460 C   0  0  0  0  0  0  0  0  0  0  0  0
   11.9680   15.3110   33.7530 C   0  0  0  0  0  0  0  0  0  0  0  0
   13.6373   15.2971   37.4661 H   0  0  0  0  0  0  0  0  0  0  0  0
   15.4169   15.2066   37.2390 H   0  0  0  0  0  0  0  0  0  0  0  0
   14.5914   16.8020   37.2390 H   0  0  0  0  0  0  0  0  0  0  0  0
   12.2230   15.0741   37.1655 H   0  0  0  0  0  0  0  0  0  0  0  0
    9.7611   14.6777   36.9357 H   0  0  0  0  0  0  0  0  0  0  0  0
    6.2650   14.3290   33.2530 H   0  0  0  0  0  0  0  0  0  0  0  0
    5.1195   13.2791   30.3977 H   0  0  0  0  0  0  0  0  0  0  0  0
    4.6964   14.1878   31.9297 H   0  0  0  0  0  0  0  0  0  0  0  0
    2.8808   15.9005   31.3940 H   0  0  0  0  0  0  0  0  0  0  0  0
    4.7534   15.5881   25.8408 H   0  0  0  0  0  0  0  0  0  0  0  0
    5.4716   17.3222   23.9498 H   0  0  0  0  0  0  0  0  0  0  0  0
    5.9038   19.7139   25.1610 H   0  0  0  0  0  0  0  0  0  0  0  0
    5.3785   19.4044   27.7548 H   0  0  0  0  0  0  0  0  0  0  0  0
   12.5871   15.4829   32.8601 H   0  0  0  0  0  0  0  0  0  0  0  0
  1  2  1  0
  2  3  2  0
  2  4  2  0
  2  5  1  0
  5  6  2  0
  6  7  1  0
  7  8  2  0
  8  9  1  0
  9 10  2  0
 10 11  1  0
 11 12  1  0
 12 13  2  0
 12 14  1  0
 14 15  1  0
 15 16  2  0
 16 17  1  0
 17 18  1  0
 18 19  1  0
 19 20  1  0
 20 21  2  0
 21 22  1  0
 22 23  2  0
 18 24  2  0
 10 25  1  0
 25 26  1  0
 26 27  2  0
 27  5  1  0
 26  8  1  0
 24 15  1  0
 23 19  1  0
  1 28  1  0
  1 29  1  0
  1 30  1  0
  6 31  1  0
  7 32  1  0
 11 33  1  0
 14 34  1  0
 14 35  1  0
 16 36  1  0
 20 37  1  0
 21 38  1  0
 22 39  1  0
 23 40  1  0
 27 41  1  0
M  END
>  <meeko>  (1) 
{"is_sidechain": [false], "free_energy": -10.108, "intermolecular_energy": -13.063, "internal_energy": 0.411}

> <PREPARED_BY>
siam chowdhury
Computational and Medicinal Chemistry
[Dr. Alam's Research Team] www.alamresearch.org
Arkansas State University

$$$$
XCJ_redock_out
     RDKit          3D

 41 44  0  0  0  0  0  0  0  0999 V2000
   14.1770   17.2430   35.1740 C   0  0  0  0  0  0  0  0  0  0  0  0
   13.7120   15.8040   36.1010 S   0  0  0  0  0  0  0  0  0  0  0  0
   14.5890   14.7140   35.7150 O   0  0  0  0  0  0  0  0  0  0  0  0
   13.5700   16.1870   37.4920 O   0  0  0  0  0  0  0  0  0  0  0  0
   12.0880   15.4280   35.4800 C   0  0  0  0  0  0  0  0  0  0  0  0
   11.0840   15.0260   36.3610 C   0  0  0  0  0  0  0  0  0  0  0  0
    9.8040   14.7310   35.8700 C   0  0  0  0  0  0  0  0  0  0  0  0
    9.5410   14.8200   34.4870 C   0  0  0  0  0  0  0  0  0  0  0  0
    8.3300   14.5730   33.8590 N   0  0  0  0  0  0  0  0  0  0  0  0
    8.4710   14.6890   32.5610 C   0  0  0  0  0  0  0  0  0  0  0  0
    7.4250   14.4820   31.6980 N   0  0  0  0  0  0  0  0  0  0  0  0
    6.1090   14.2470   32.0330 C   0  0  0  0  0  0  0  0  0  0  0  0
    5.6540   14.1630   33.1730 O   0  0  0  0  0  0  0  0  0  0  0  0
    5.1730   14.0200   30.8530 C   0  0  0  0  0  0  0  0  0  0  0  0
    4.7030   15.2790   30.1990 C   0  0  0  0  0  0  0  0  0  0  0  0
    3.4050   15.7560   30.1620 C   0  0  0  0  0  0  0  0  0  0  0  0
    3.3560   17.2670   29.3540 S   0  0  0  0  0  0  0  0  0  0  0  0
    5.0350   17.1590   29.0850 C   0  0  0  0  0  0  0  0  0  0  0  0
    5.7060   18.1750   28.3890 N   0  0  0  0  0  0  0  0  0  0  0  0
    5.6040   18.4020   27.0240 C   0  0  0  0  0  0  0  0  0  0  0  0
    6.3820   19.4820   26.6750 C   0  0  0  0  0  0  0  0  0  0  0  0
    7.0150   19.9350   27.8500 C   0  0  0  0  0  0  0  0  0  0  0  0
    6.5860   19.1280   28.8810 C   0  0  0  0  0  0  0  0  0  0  0  0
    5.6370   16.0870   29.5580 N   0  0  0  0  0  0  0  0  0  0  0  0
   10.0080   15.1750   32.0170 S   0  0  0  0  0  0  0  0  0  0  0  0
   10.5830   15.1920   33.6330 C   0  0  0  0  0  0  0  0  0  0  0  0
   11.8660   15.5050   34.1020 C   0  0  0  0  0  0  0  0  0  0  0  0
   14.4398   18.0562   35.8666 H   0  0  0  0  0  0  0  0  0  0  0  0
   15.0444   17.0064   34.5403 H   0  0  0  0  0  0  0  0  0  0  0  0
   13.3352   17.5588   34.5403 H   0  0  0  0  0  0  0  0  0  0  0  0
   11.2956   14.9407   37.4371 H   0  0  0  0  0  0  0  0  0  0  0  0
    9.0049   14.4301   36.5635 H   0  0  0  0  0  0  0  0  0  0  0  0
    7.6360   14.5040   30.7370 H   0  0  0  0  0  0  0  0  0  0  0  0
    5.7038   13.4171   30.1015 H   0  0  0  0  0  0  0  0  0  0  0  0
    4.2798   13.5139   31.2481 H   0  0  0  0  0  0  0  0  0  0  0  0
    2.5318   15.2409   30.5888 H   0  0  0  0  0  0  0  0  0  0  0  0
    4.9940   17.8088   26.3269 H   0  0  0  0  0  0  0  0  0  0  0  0
    6.4897   19.9113   25.6680 H   0  0  0  0  0  0  0  0  0  0  0  0
    7.7199   20.7758   27.9291 H   0  0  0  0  0  0  0  0  0  0  0  0
    6.8939   19.2245   29.9326 H   0  0  0  0  0  0  0  0  0  0  0  0
   12.6691   15.8005   33.4109 H   0  0  0  0  0  0  0  0  0  0  0  0
  1  2  1  0
  2  3  2  0
  2  4  2  0
  2  5  1  0
  5  6  2  0
  6  7  1  0
  7  8  2  0
  8  9  1  0
  9 10  2  0
 10 11  1  0
 11 12  1  0
 12 13  2  0
 12 14  1  0
 14 15  1  0
 15 16  2  0
 16 17  1  0
 17 18  1  0
 18 19  1  0
 19 20  1  0
 20 21  2  0
 21 22  1  0
 22 23  2  0
 18 24  2  0
 10 25  1  0
 25 26  1  0
 26 27  2  0
 27  5  1  0
 26  8  1  0
 24 15  1  0
 23 19  1  0
  1 28  1  0
  1 29  1  0
  1 30  1  0
  6 31  1  0
  7 32  1  0
 11 33  1  0
 14 34  1  0
 14 35  1  0
 16 36  1  0
 20 37  1  0
 21 38  1  0
 22 39  1  0
 23 40  1  0
 27 41  1  0
M  END
>  <meeko>  (2) 
{"is_sidechain": [false], "free_energy": -9.623, "intermolecular_energy": -11.659, "internal_energy": -0.366}

> <PREPARED_BY>
siam chowdhury
Computational and Medicinal Chemistry
[Dr. Alam's Research Team] www.alamresearch.org
Arkansas State University

$$$$
XCJ_redock_out
     RDKit          3D

 41 44  0  0  0  0  0  0  0  0999 V2000
   13.4240   26.5450   37.7980 C   0  0  0  0  0  0  0  0  0  0  0  0
   11.9620   25.7450   37.1900 S   0  0  0  0  0  0  0  0  0  0  0  0
   10.8320   26.2180   37.9670 O   0  0  0  0  0  0  0  0  0  0  0  0
   11.9620   25.8400   35.7430 O   0  0  0  0  0  0  0  0  0  0  0  0
   12.2270   24.0390   37.6150 C   0  0  0  0  0  0  0  0  0  0  0  0
   11.6300   23.5070   38.7600 C   0  0  0  0  0  0  0  0  0  0  0  0
   11.8400   22.1620   39.0930 C   0  0  0  0  0  0  0  0  0  0  0  0
   12.6670   21.3550   38.2830 C   0  0  0  0  0  0  0  0  0  0  0  0
   12.9550   20.0120   38.4770 N   0  0  0  0  0  0  0  0  0  0  0  0
   13.8100   19.6060   37.5700 C   0  0  0  0  0  0  0  0  0  0  0  0
   14.2760   18.3170   37.5400 N   0  0  0  0  0  0  0  0  0  0  0  0
   14.9090   17.6410   38.5610 C   0  0  0  0  0  0  0  0  0  0  0  0
   15.1800   18.0950   39.6730 O   0  0  0  0  0  0  0  0  0  0  0  0
   15.3450   16.2220   38.2240 C   0  0  0  0  0  0  0  0  0  0  0  0
   14.7890   15.7040   36.9370 C   0  0  0  0  0  0  0  0  0  0  0  0
   15.5100   15.1920   35.8730 C   0  0  0  0  0  0  0  0  0  0  0  0
   14.4440   14.6650   34.6390 S   0  0  0  0  0  0  0  0  0  0  0  0
   13.1230   15.1810   35.5830 C   0  0  0  0  0  0  0  0  0  0  0  0
   11.8120   15.0390   35.1030 N   0  0  0  0  0  0  0  0  0  0  0  0
   10.6940   14.8410   35.9010 C   0  0  0  0  0  0  0  0  0  0  0  0
    9.5710   14.7560   35.1090 C   0  0  0  0  0  0  0  0  0  0  0  0
    9.9960   14.8800   33.7710 C   0  0  0  0  0  0  0  0  0  0  0  0
   11.3620   15.0550   33.7920 C   0  0  0  0  0  0  0  0  0  0  0  0
   13.4100   15.7120   36.7540 N   0  0  0  0  0  0  0  0  0  0  0  0
   14.2530   20.7540   36.3940 S   0  0  0  0  0  0  0  0  0  0  0  0
   13.2740   21.9330   37.1650 C   0  0  0  0  0  0  0  0  0  0  0  0
   13.0690   23.2720   36.8050 C   0  0  0  0  0  0  0  0  0  0  0  0
   13.4144   26.5397   38.8979 H   0  0  0  0  0  0  0  0  0  0  0  0
   14.3132   26.0078   37.4365 H   0  0  0  0  0  0  0  0  0  0  0  0
   13.4509   27.5836   37.4365 H   0  0  0  0  0  0  0  0  0  0  0  0
   10.9973   24.1414   39.3981 H   0  0  0  0  0  0  0  0  0  0  0  0
   11.3600   21.7352   39.9860 H   0  0  0  0  0  0  0  0  0  0  0  0
   14.1450   17.8210   36.7010 H   0  0  0  0  0  0  0  0  0  0  0  0
   16.4429   16.2040   38.1585 H   0  0  0  0  0  0  0  0  0  0  0  0
   14.9572   15.5722   39.0223 H   0  0  0  0  0  0  0  0  0  0  0  0
   16.6074   15.1320   35.8260 H   0  0  0  0  0  0  0  0  0  0  0  0
   10.7036   14.7638   36.9982 H   0  0  0  0  0  0  0  0  0  0  0  0
    8.5363   14.6173   35.4555 H   0  0  0  0  0  0  0  0  0  0  0  0
    9.3562   14.8438   32.8769 H   0  0  0  0  0  0  0  0  0  0  0  0
   11.9983   15.1872   32.9045 H   0  0  0  0  0  0  0  0  0  0  0  0
   13.5535   23.7037   35.9168 H   0  0  0  0  0  0  0  0  0  0  0  0
  1  2  1  0
  2  3  2  0
  2  4  2  0
  2  5  1  0
  5  6  2  0
  6  7  1  0
  7  8  2  0
  8  9  1  0
  9 10  2  0
 10 11  1  0
 11 12  1  0
 12 13  2  0
 12 14  1  0
 14 15  1  0
 15 16  2  0
 16 17  1  0
 17 18  1  0
 18 19  1  0
 19 20  1  0
 20 21  2  0
 21 22  1  0
 22 23  2  0
 18 24  2  0
 10 25  1  0
 25 26  1  0
 26 27  2  0
 27  5  1  0
 26  8  1  0
 24 15  1  0
 23 19  1  0
  1 28  1  0
  1 29  1  0
  1 30  1  0
  6 31  1  0
  7 32  1  0
 11 33  1  0
 14 34  1  0
 14 35  1  0
 16 36  1  0
 20 37  1  0
 21 38  1  0
 22 39  1  0
 23 40  1  0
 27 41  1  0
M  END
>  <meeko>  (3) 
{"is_sidechain": [false], "free_energy": -9.205, "intermolecular_energy": -10.746, "internal_energy": -0.739}

> <PREPARED_BY>
siam chowdhury
Computational and Medicinal Chemistry
[Dr. Alam's Research Team] www.alamresearch.org
Arkansas State University

$$$$
XCJ_redock_out
     RDKit          3D

 41 44  0  0  0  0  0  0  0  0999 V2000
    6.6000   14.2810   32.0830 C   0  0  0  0  0  0  0  0  0  0  0  0
    8.1270   14.9930   31.5280 S   0  0  0  0  0  0  0  0  0  0  0  0
    8.7440   14.0700   30.5950 O   0  0  0  0  0  0  0  0  0  0  0  0
    7.8750   16.3720   31.1550 O   0  0  0  0  0  0  0  0  0  0  0  0
    9.1260   15.0110   33.0000 C   0  0  0  0  0  0  0  0  0  0  0  0
    8.5700   14.6270   34.2210 C   0  0  0  0  0  0  0  0  0  0  0  0
    9.3590   14.6420   35.3800 C   0  0  0  0  0  0  0  0  0  0  0  0
   10.7040   15.0640   35.3130 C   0  0  0  0  0  0  0  0  0  0  0  0
   11.6050   15.1190   36.3650 N   0  0  0  0  0  0  0  0  0  0  0  0
   12.7420   15.6220   35.9500 C   0  0  0  0  0  0  0  0  0  0  0  0
   13.8070   15.8010   36.7960 N   0  0  0  0  0  0  0  0  0  0  0  0
   15.0540   15.2240   36.6910 C   0  0  0  0  0  0  0  0  0  0  0  0
   15.4160   14.4290   35.8240 O   0  0  0  0  0  0  0  0  0  0  0  0
   16.0290   15.5870   37.8040 C   0  0  0  0  0  0  0  0  0  0  0  0
   16.0590   17.0440   38.1350 C   0  0  0  0  0  0  0  0  0  0  0  0
   17.0010   17.9660   37.7150 C   0  0  0  0  0  0  0  0  0  0  0  0
   16.5930   19.5280   38.2910 S   0  0  0  0  0  0  0  0  0  0  0  0
   15.2340   18.8660   39.0750 C   0  0  0  0  0  0  0  0  0  0  0  0
   14.3790   19.6870   39.8240 N   0  0  0  0  0  0  0  0  0  0  0  0
   13.8220   19.3440   41.0480 C   0  0  0  0  0  0  0  0  0  0  0  0
   13.0460   20.3830   41.5100 C   0  0  0  0  0  0  0  0  0  0  0  0
   13.0960   21.4030   40.5380 C   0  0  0  0  0  0  0  0  0  0  0  0
   13.9150   20.9590   39.5230 C   0  0  0  0  0  0  0  0  0  0  0  0
   15.0500   17.5680   38.9360 N   0  0  0  0  0  0  0  0  0  0  0  0
   12.8400   15.9760   34.2880 S   0  0  0  0  0  0  0  0  0  0  0  0
   11.2130   15.4740   34.0780 C   0  0  0  0  0  0  0  0  0  0  0  0
   10.4480   15.4550   32.9040 C   0  0  0  0  0  0  0  0  0  0  0  0
    6.5784   14.2710   33.1827 H   0  0  0  0  0  0  0  0  0  0  0  0
    5.7578   14.8793   31.7052 H   0  0  0  0  0  0  0  0  0  0  0  0
    6.5169   13.2513   31.7052 H   0  0  0  0  0  0  0  0  0  0  0  0
    7.5169   14.3138   34.2740 H   0  0  0  0  0  0  0  0  0  0  0  0
    8.9295   14.3248   36.3417 H   0  0  0  0  0  0  0  0  0  0  0  0
   13.6660   16.4060   37.5580 H   0  0  0  0  0  0  0  0  0  0  0  0
   15.7421   15.0325   38.7096 H   0  0  0  0  0  0  0  0  0  0  0  0
   17.0344   15.3215   37.4453 H   0  0  0  0  0  0  0  0  0  0  0  0
   17.8830   17.7310   37.1011 H   0  0  0  0  0  0  0  0  0  0  0  0
   13.9769   18.3879   41.5694 H   0  0  0  0  0  0  0  0  0  0  0  0
   12.4911   20.4119   42.4593 H   0  0  0  0  0  0  0  0  0  0  0  0
   12.5779   22.3723   40.5818 H   0  0  0  0  0  0  0  0  0  0  0  0
   14.1628   21.5261   38.6136 H   0  0  0  0  0  0  0  0  0  0  0  0
   10.8724   15.7778   31.9419 H   0  0  0  0  0  0  0  0  0  0  0  0
  1  2  1  0
  2  3  2  0
  2  4  2  0
  2  5  1  0
  5  6  2  0
  6  7  1  0
  7  8  2  0
  8  9  1  0
  9 10  2  0
 10 11  1  0
 11 12  1  0
 12 13  2  0
 12 14  1  0
 14 15  1  0
 15 16  2  0
 16 17  1  0
 17 18  1  0
 18 19  1  0
 19 20  1  0
 20 21  2  0
 21 22  1  0
 22 23  2  0
 18 24  2  0
 10 25  1  0
 25 26  1  0
 26 27  2  0
 27  5  1  0
 26  8  1  0
 24 15  1  0
 23 19  1  0
  1 28  1  0
  1 29  1  0
  1 30  1  0
  6 31  1  0
  7 32  1  0
 11 33  1  0
 14 34  1  0
 14 35  1  0
 16 36  1  0
 20 37  1  0
 21 38  1  0
 22 39  1  0
 23 40  1  0
 27 41  1  0
M  END
>  <meeko>  (4) 
{"is_sidechain": [false], "free_energy": -8.673, "intermolecular_energy": -10.032, "internal_energy": -0.765}

> <PREPARED_BY>
siam chowdhury
Computational and Medicinal Chemistry
[Dr. Alam's Research Team] www.alamresearch.org
Arkansas State University

$$$$
XCJ_redock_out
     RDKit          3D

 41 44  0  0  0  0  0  0  0  0999 V2000
   14.5090   17.2020   37.9610 C   0  0  0  0  0  0  0  0  0  0  0  0
   14.9900   16.6970   36.3310 S   0  0  0  0  0  0  0  0  0  0  0  0
   15.3360   17.8840   35.5720 O   0  0  0  0  0  0  0  0  0  0  0  0
   15.9260   15.5950   36.4550 O   0  0  0  0  0  0  0  0  0  0  0  0
   13.4840   16.0440   35.6450 C   0  0  0  0  0  0  0  0  0  0  0  0
   12.7640   15.0770   36.3470 C   0  0  0  0  0  0  0  0  0  0  0  0
   11.5770   14.5640   35.8050 C   0  0  0  0  0  0  0  0  0  0  0  0
   11.1250   15.0110   34.5460 C   0  0  0  0  0  0  0  0  0  0  0  0
    9.9710   14.6080   33.8920 N   0  0  0  0  0  0  0  0  0  0  0  0
    9.9040   15.1800   32.7140 C   0  0  0  0  0  0  0  0  0  0  0  0
    8.8650   14.9420   31.8510 N   0  0  0  0  0  0  0  0  0  0  0  0
    7.5500   14.7020   32.1860 C   0  0  0  0  0  0  0  0  0  0  0  0
    7.0890   14.6410   33.3260 O   0  0  0  0  0  0  0  0  0  0  0  0
    6.6220   14.4390   31.0070 C   0  0  0  0  0  0  0  0  0  0  0  0
    6.1640   15.6750   30.3050 C   0  0  0  0  0  0  0  0  0  0  0  0
    5.0690   15.7920   29.4680 C   0  0  0  0  0  0  0  0  0  0  0  0
    4.8990   17.4150   28.9430 S   0  0  0  0  0  0  0  0  0  0  0  0
    6.2960   17.8290   29.8250 C   0  0  0  0  0  0  0  0  0  0  0  0
    6.7740   19.1470   29.8160 N   0  0  0  0  0  0  0  0  0  0  0  0
    6.4250   20.1240   30.7380 C   0  0  0  0  0  0  0  0  0  0  0  0
    7.0840   21.2960   30.4430 C   0  0  0  0  0  0  0  0  0  0  0  0
    7.8530   21.0590   29.2860 C   0  0  0  0  0  0  0  0  0  0  0  0
    7.6520   19.7450   28.9240 C   0  0  0  0  0  0  0  0  0  0  0  0
    6.8800   16.8530   30.4920 N   0  0  0  0  0  0  0  0  0  0  0  0
   11.1470   16.2830   32.3490 S   0  0  0  0  0  0  0  0  0  0  0  0
   11.8930   15.9550   33.8580 C   0  0  0  0  0  0  0  0  0  0  0  0
   13.0760   16.4910   34.3860 C   0  0  0  0  0  0  0  0  0  0  0  0
   15.0671   16.6160   38.7061 H   0  0  0  0  0  0  0  0  0  0  0  0
   14.7311   18.2711   38.0941 H   0  0  0  0  0  0  0  0  0  0  0  0
   13.4304   17.0322   38.0941 H   0  0  0  0  0  0  0  0  0  0  0  0
   13.1261   14.7184   37.3218 H   0  0  0  0  0  0  0  0  0  0  0  0
   10.9980   13.8126   36.3619 H   0  0  0  0  0  0  0  0  0  0  0  0
    9.0810   14.9430   30.8920 H   0  0  0  0  0  0  0  0  0  0  0  0
    7.1554   13.8071   30.2816 H   0  0  0  0  0  0  0  0  0  0  0  0
    5.7227   13.9527   31.4130 H   0  0  0  0  0  0  0  0  0  0  0  0
    4.4040   14.9641   29.1810 H   0  0  0  0  0  0  0  0  0  0  0  0
    5.7277   19.9832   31.5770 H   0  0  0  0  0  0  0  0  0  0  0  0
    7.0221   22.2398   31.0046 H   0  0  0  0  0  0  0  0  0  0  0  0
    8.4943   21.7875   28.7683 H   0  0  0  0  0  0  0  0  0  0  0  0
    8.1164   19.2466   28.0603 H   0  0  0  0  0  0  0  0  0  0  0  0
   13.6619   17.2368   33.8288 H   0  0  0  0  0  0  0  0  0  0  0  0
  1  2  1  0
  2  3  2  0
  2  4  2  0
  2  5  1  0
  5  6  2  0
  6  7  1  0
  7  8  2  0
  8  9  1  0
  9 10  2  0
 10 11  1  0
 11 12  1  0
 12 13  2  0
 12 14  1  0
 14 15  1  0
 15 16  2  0
 16 17  1  0
 17 18  1  0
 18 19  1  0
 19 20  1  0
 20 21  2  0
 21 22  1  0
 22 23  2  0
 18 24  2  0
 10 25  1  0
 25 26  1  0
 26 27  2  0
 27  5  1  0
 26  8  1  0
 24 15  1  0
 23 19  1  0
  1 28  1  0
  1 29  1  0
  1 30  1  0
  6 31  1  0
  7 32  1  0
 11 33  1  0
 14 34  1  0
 14 35  1  0
 16 36  1  0
 20 37  1  0
 21 38  1  0
 22 39  1  0
 23 40  1  0
 27 41  1  0
M  END
>  <meeko>  (5) 
{"is_sidechain": [false], "free_energy": -8.622, "intermolecular_energy": -10.159, "internal_energy": -0.573}

> <PREPARED_BY>
siam chowdhury
Computational and Medicinal Chemistry
[Dr. Alam's Research Team] www.alamresearch.org
Arkansas State University

$$$$
XCJ_redock_out
     RDKit          3D

 41 44  0  0  0  0  0  0  0  0999 V2000
   13.7020   16.5410   37.1790 C   0  0  0  0  0  0  0  0  0  0  0  0
   14.5180   16.8990   35.6450 S   0  0  0  0  0  0  0  0  0  0  0  0
   14.9280   18.2900   35.6640 O   0  0  0  0  0  0  0  0  0  0  0  0
   15.4790   15.8430   35.3860 O   0  0  0  0  0  0  0  0  0  0  0  0
   13.2150   16.7420   34.4450 C   0  0  0  0  0  0  0  0  0  0  0  0
   13.1530   17.6270   33.3670 C   0  0  0  0  0  0  0  0  0  0  0  0
   12.1250   17.5020   32.4220 C   0  0  0  0  0  0  0  0  0  0  0  0
   11.1470   16.4970   32.5730 C   0  0  0  0  0  0  0  0  0  0  0  0
   10.0850   16.2440   31.7170 N   0  0  0  0  0  0  0  0  0  0  0  0
    9.3420   15.2800   32.2050 C   0  0  0  0  0  0  0  0  0  0  0  0
    8.2140   14.8400   31.5610 N   0  0  0  0  0  0  0  0  0  0  0  0
    6.9970   14.5400   32.1340 C   0  0  0  0  0  0  0  0  0  0  0  0
    6.7250   14.6000   33.3330 O   0  0  0  0  0  0  0  0  0  0  0  0
    5.9330   14.0400   31.1670 C   0  0  0  0  0  0  0  0  0  0  0  0
    5.2230   15.1270   30.4280 C   0  0  0  0  0  0  0  0  0  0  0  0
    3.8560   15.3390   30.3830 C   0  0  0  0  0  0  0  0  0  0  0  0
    3.5080   16.7420   29.4630 S   0  0  0  0  0  0  0  0  0  0  0  0
    5.1730   16.9420   29.1670 C   0  0  0  0  0  0  0  0  0  0  0  0
    5.6290   18.0100   28.3810 N   0  0  0  0  0  0  0  0  0  0  0  0
    6.3440   19.0980   28.8600 C   0  0  0  0  0  0  0  0  0  0  0  0
    6.6430   19.9500   27.8210 C   0  0  0  0  0  0  0  0  0  0  0  0
    6.0780   19.3950   26.6540 C   0  0  0  0  0  0  0  0  0  0  0  0
    5.4700   18.2140   27.0180 C   0  0  0  0  0  0  0  0  0  0  0  0
    5.9770   16.0480   29.7070 N   0  0  0  0  0  0  0  0  0  0  0  0
    9.8970   14.5660   33.6460 S   0  0  0  0  0  0  0  0  0  0  0  0
   11.2230   15.6530   33.6830 C   0  0  0  0  0  0  0  0  0  0  0  0
   12.2480   15.7500   34.6340 C   0  0  0  0  0  0  0  0  0  0  0  0
   14.3546   16.8273   38.0170 H   0  0  0  0  0  0  0  0  0  0  0  0
   12.7619   17.1093   37.2356 H   0  0  0  0  0  0  0  0  0  0  0  0
   13.4836   15.4644   37.2356 H   0  0  0  0  0  0  0  0  0  0  0  0
   13.9081   18.4196   33.2595 H   0  0  0  0  0  0  0  0  0  0  0  0
   12.0812   18.1876   31.5629 H   0  0  0  0  0  0  0  0  0  0  0  0
    8.2800   14.7260   30.5860 H   0  0  0  0  0  0  0  0  0  0  0  0
    6.4169   13.3808   30.4313 H   0  0  0  0  0  0  0  0  0  0  0  0
    5.1753   13.5184   31.7702 H   0  0  0  0  0  0  0  0  0  0  0  0
    3.1029   14.7000   30.8672 H   0  0  0  0  0  0  0  0  0  0  0  0
    6.6288   19.2559   29.9107 H   0  0  0  0  0  0  0  0  0  0  0  0
    7.2149   20.8872   27.8882 H   0  0  0  0  0  0  0  0  0  0  0  0
    6.1159   19.8250   25.6422 H   0  0  0  0  0  0  0  0  0  0  0  0
    4.9396   17.5363   26.3329 H   0  0  0  0  0  0  0  0  0  0  0  0
   12.2901   15.0703   35.4978 H   0  0  0  0  0  0  0  0  0  0  0  0
  1  2  1  0
  2  3  2  0
  2  4  2  0
  2  5  1  0
  5  6  2  0
  6  7  1  0
  7  8  2  0
  8  9  1  0
  9 10  2  0
 10 11  1  0
 11 12  1  0
 12 13  2  0
 12 14  1  0
 14 15  1  0
 15 16  2  0
 16 17  1  0
 17 18  1  0
 18 19  1  0
 19 20  1  0
 20 21  2  0
 21 22  1  0
 22 23  2  0
 18 24  2  0
 10 25  1  0
 25 26  1  0
 26 27  2  0
 27  5  1  0
 26  8  1  0
 24 15  1  0
 23 19  1  0
  1 28  1  0
  1 29  1  0
  1 30  1  0
  6 31  1  0
  7 32  1  0
 11 33  1  0
 14 34  1  0
 14 35  1  0
 16 36  1  0
 20 37  1  0
 21 38  1  0
 22 39  1  0
 23 40  1  0
 27 41  1  0
M  END
>  <meeko>  (6) 
{"is_sidechain": [false], "free_energy": -8.318, "intermolecular_energy": -9.745, "internal_energy": -0.593}

> <PREPARED_BY>
siam chowdhury
Computational and Medicinal Chemistry
[Dr. Alam's Research Team] www.alamresearch.org
Arkansas State University

$$$$
XCJ_redock_out
     RDKit          3D

 41 44  0  0  0  0  0  0  0  0999 V2000
    3.4930   24.9060   29.3560 C   0  0  0  0  0  0  0  0  0  0  0  0
    3.6880   23.9540   27.8720 S   0  0  0  0  0  0  0  0  0  0  0  0
    2.3710   23.5580   27.4120 O   0  0  0  0  0  0  0  0  0  0  0  0
    4.6000   24.6640   26.9950 O   0  0  0  0  0  0  0  0  0  0  0  0
    4.5200   22.4870   28.4360 C   0  0  0  0  0  0  0  0  0  0  0  0
    5.8830   22.5320   28.7320 C   0  0  0  0  0  0  0  0  0  0  0  0
    6.5370   21.3740   29.1760 C   0  0  0  0  0  0  0  0  0  0  0  0
    5.8220   20.1640   29.3040 C   0  0  0  0  0  0  0  0  0  0  0  0
    6.3270   18.9500   29.7410 N   0  0  0  0  0  0  0  0  0  0  0  0
    5.3960   18.0300   29.6680 C   0  0  0  0  0  0  0  0  0  0  0  0
    5.6350   16.7280   30.0290 N   0  0  0  0  0  0  0  0  0  0  0  0
    5.5390   15.6140   29.2230 C   0  0  0  0  0  0  0  0  0  0  0  0
    5.2010   15.6020   28.0390 O   0  0  0  0  0  0  0  0  0  0  0  0
    5.8340   14.2900   29.9130 C   0  0  0  0  0  0  0  0  0  0  0  0
    6.5010   14.4320   31.2430 C   0  0  0  0  0  0  0  0  0  0  0  0
    5.9320   14.1970   32.4820 C   0  0  0  0  0  0  0  0  0  0  0  0
    7.0960   14.4310   33.7180 S   0  0  0  0  0  0  0  0  0  0  0  0
    8.2440   14.8560   32.5340 C   0  0  0  0  0  0  0  0  0  0  0  0
    9.5480   15.2130   32.9090 N   0  0  0  0  0  0  0  0  0  0  0  0
   10.2250   14.7030   34.0070 C   0  0  0  0  0  0  0  0  0  0  0  0
   11.4830   15.2580   34.0740 C   0  0  0  0  0  0  0  0  0  0  0  0
   11.5950   16.1630   32.9990 C   0  0  0  0  0  0  0  0  0  0  0  0
   10.4070   16.1170   32.3020 C   0  0  0  0  0  0  0  0  0  0  0  0
    7.8340   14.8300   31.2820 N   0  0  0  0  0  0  0  0  0  0  0  0
    3.8600   18.5600   29.1650 S   0  0  0  0  0  0  0  0  0  0  0  0
    4.4670   20.1520   28.9640 C   0  0  0  0  0  0  0  0  0  0  0  0
    3.7890   21.3000   28.5310 C   0  0  0  0  0  0  0  0  0  0  0  0
    3.6268   24.2528   30.2309 H   0  0  0  0  0  0  0  0  0  0  0  0
    4.2455   25.7080   29.3787 H   0  0  0  0  0  0  0  0  0  0  0  0
    2.4858   25.3475   29.3787 H   0  0  0  0  0  0  0  0  0  0  0  0
    6.4421   23.4723   28.6174 H   0  0  0  0  0  0  0  0  0  0  0  0
    7.6080   21.4086   29.4247 H   0  0  0  0  0  0  0  0  0  0  0  0
    5.9030   16.5720   30.9620 H   0  0  0  0  0  0  0  0  0  0  0  0
    4.8831   13.7565   30.0583 H   0  0  0  0  0  0  0  0  0  0  0  0
    6.5328   13.7420   29.2638 H   0  0  0  0  0  0  0  0  0  0  0  0
    4.8853   13.9029   32.6494 H   0  0  0  0  0  0  0  0  0  0  0  0
    9.8185   13.9670   34.7163 H   0  0  0  0  0  0  0  0  0  0  0  0
   12.2556   15.0369   34.8252 H   0  0  0  0  0  0  0  0  0  0  0  0
   12.4676   16.7890   32.7610 H   0  0  0  0  0  0  0  0  0  0  0  0
   10.1757   16.7066   31.4026 H   0  0  0  0  0  0  0  0  0  0  0  0
    2.7197   21.2675   28.2751 H   0  0  0  0  0  0  0  0  0  0  0  0
  1  2  1  0
  2  3  2  0
  2  4  2  0
  2  5  1  0
  5  6  2  0
  6  7  1  0
  7  8  2  0
  8  9  1  0
  9 10  2  0
 10 11  1  0
 11 12  1  0
 12 13  2  0
 12 14  1  0
 14 15  1  0
 15 16  2  0
 16 17  1  0
 17 18  1  0
 18 19  1  0
 19 20  1  0
 20 21  2  0
 21 22  1  0
 22 23  2  0
 18 24  2  0
 10 25  1  0
 25 26  1  0
 26 27  2  0
 27  5  1  0
 26  8  1  0
 24 15  1  0
 23 19  1  0
  1 28  1  0
  1 29  1  0
  1 30  1  0
  6 31  1  0
  7 32  1  0
 11 33  1  0
 14 34  1  0
 14 35  1  0
 16 36  1  0
 20 37  1  0
 21 38  1  0
 22 39  1  0
 23 40  1  0
 27 41  1  0
M  END
>  <meeko>  (7) 
{"is_sidechain": [false], "free_energy": -8.282, "intermolecular_energy": -9.498, "internal_energy": -0.794}

> <PREPARED_BY>
siam chowdhury
Computational and Medicinal Chemistry
[Dr. Alam's Research Team] www.alamresearch.org
Arkansas State University

$$$$
XCJ_redock_out
     RDKit          3D

 41 44  0  0  0  0  0  0  0  0999 V2000
   12.7840   21.8820   42.2030 C   0  0  0  0  0  0  0  0  0  0  0  0
   11.0760   21.8880   41.7260 S   0  0  0  0  0  0  0  0  0  0  0  0
   10.6700   20.5180   41.4780 O   0  0  0  0  0  0  0  0  0  0  0  0
   10.3460   22.7220   42.6620 O   0  0  0  0  0  0  0  0  0  0  0  0
   11.0940   22.7310   40.1600 C   0  0  0  0  0  0  0  0  0  0  0  0
   10.0370   23.5730   39.8110 C   0  0  0  0  0  0  0  0  0  0  0  0
   10.0540   24.2370   38.5760 C   0  0  0  0  0  0  0  0  0  0  0  0
   11.1270   24.0370   37.6830 C   0  0  0  0  0  0  0  0  0  0  0  0
   11.2880   24.6310   36.4400 N   0  0  0  0  0  0  0  0  0  0  0  0
   12.3670   24.1630   35.8600 C   0  0  0  0  0  0  0  0  0  0  0  0
   12.7530   24.5750   34.6100 N   0  0  0  0  0  0  0  0  0  0  0  0
   13.7060   25.5230   34.3080 C   0  0  0  0  0  0  0  0  0  0  0  0
   14.3610   26.1790   35.1190 O   0  0  0  0  0  0  0  0  0  0  0  0
   13.8990   25.7960   32.8220 C   0  0  0  0  0  0  0  0  0  0  0  0
   14.6060   24.7020   32.0900 C   0  0  0  0  0  0  0  0  0  0  0  0
   15.4970   24.8520   31.0420 C   0  0  0  0  0  0  0  0  0  0  0  0
   16.1030   23.3230   30.5610 S   0  0  0  0  0  0  0  0  0  0  0  0
   15.1230   22.5820   31.7420 C   0  0  0  0  0  0  0  0  0  0  0  0
   15.1280   21.1870   31.8910 N   0  0  0  0  0  0  0  0  0  0  0  0
   14.0450   20.4320   32.3180 C   0  0  0  0  0  0  0  0  0  0  0  0
   14.3890   19.1000   32.3390 C   0  0  0  0  0  0  0  0  0  0  0  0
   15.7380   19.0130   31.9370 C   0  0  0  0  0  0  0  0  0  0  0  0
   16.1660   20.2940   31.6670 C   0  0  0  0  0  0  0  0  0  0  0  0
   14.3810   23.3850   32.4770 N   0  0  0  0  0  0  0  0  0  0  0  0
   13.2920   23.0680   36.7770 S   0  0  0  0  0  0  0  0  0  0  0  0
   12.1500   23.1600   38.0540 C   0  0  0  0  0  0  0  0  0  0  0  0
   12.1610   22.4960   39.2880 C   0  0  0  0  0  0  0  0  0  0  0  0
   12.8582   21.8817   43.3005 H   0  0  0  0  0  0  0  0  0  0  0  0
   13.2735   20.9821   41.8022 H   0  0  0  0  0  0  0  0  0  0  0  0
   13.2798   22.7784   41.8022 H   0  0  0  0  0  0  0  0  0  0  0  0
    9.1934   23.7153   40.5024 H   0  0  0  0  0  0  0  0  0  0  0  0
    9.2306   24.9137   38.3038 H   0  0  0  0  0  0  0  0  0  0  0  0
   12.3020   24.1470   33.8480 H   0  0  0  0  0  0  0  0  0  0  0  0
   12.9084   25.9346   32.3642 H   0  0  0  0  0  0  0  0  0  0  0  0
   14.5314   26.6925   32.7426 H   0  0  0  0  0  0  0  0  0  0  0  0
   15.7757   25.8127   30.5844 H   0  0  0  0  0  0  0  0  0  0  0  0
   13.0611   20.8368   32.5973 H   0  0  0  0  0  0  0  0  0  0  0  0
   13.7347   18.2606   32.6171 H   0  0  0  0  0  0  0  0  0  0  0  0
   16.3365   18.0938   31.8545 H   0  0  0  0  0  0  0  0  0  0  0  0
   17.1756   20.5671   31.3262 H   0  0  0  0  0  0  0  0  0  0  0  0
   12.9800   21.8142   39.5607 H   0  0  0  0  0  0  0  0  0  0  0  0
  1  2  1  0
  2  3  2  0
  2  4  2  0
  2  5  1  0
  5  6  2  0
  6  7  1  0
  7  8  2  0
  8  9  1  0
  9 10  2  0
 10 11  1  0
 11 12  1  0
 12 13  2  0
 12 14  1  0
 14 15  1  0
 15 16  2  0
 16 17  1  0
 17 18  1  0
 18 19  1  0
 19 20  1  0
 20 21  2  0
 21 22  1  0
 22 23  2  0
 18 24  2  0
 10 25  1  0
 25 26  1  0
 26 27  2  0
 27  5  1  0
 26  8  1  0
 24 15  1  0
 23 19  1  0
  1 28  1  0
  1 29  1  0
  1 30  1  0
  6 31  1  0
  7 32  1  0
 11 33  1  0
 14 34  1  0
 14 35  1  0
 16 36  1  0
 20 37  1  0
 21 38  1  0
 22 39  1  0
 23 40  1  0
 27 41  1  0
M  END
>  <meeko>  (8) 
{"is_sidechain": [false], "free_energy": -8.012, "intermolecular_energy": -9.074, "internal_energy": -0.87}

> <PREPARED_BY>
siam chowdhury
Computational and Medicinal Chemistry
[Dr. Alam's Research Team] www.alamresearch.org
Arkansas State University

$$$$
XCJ_redock_out
     RDKit          3D

 41 44  0  0  0  0  0  0  0  0999 V2000
   12.4440   21.4190   42.7000 C   0  0  0  0  0  0  0  0  0  0  0  0
   10.9410   21.7180   41.8080 S   0  0  0  0  0  0  0  0  0  0  0  0
   10.1070   20.5360   41.9160 O   0  0  0  0  0  0  0  0  0  0  0  0
   10.4360   23.0220   42.1940 O   0  0  0  0  0  0  0  0  0  0  0  0
   11.4870   21.8340   40.1190 C   0  0  0  0  0  0  0  0  0  0  0  0
   12.1330   20.7500   39.5220 C   0  0  0  0  0  0  0  0  0  0  0  0
   12.5620   20.8440   38.1910 C   0  0  0  0  0  0  0  0  0  0  0  0
   12.3590   22.0370   37.4650 C   0  0  0  0  0  0  0  0  0  0  0  0
   12.7150   22.2720   36.1460 N   0  0  0  0  0  0  0  0  0  0  0  0
   12.4340   23.5110   35.8240 C   0  0  0  0  0  0  0  0  0  0  0  0
   12.6990   24.0130   34.5750 N   0  0  0  0  0  0  0  0  0  0  0  0
   13.6890   24.9080   34.2360 C   0  0  0  0  0  0  0  0  0  0  0  0
   14.4950   25.4270   35.0080 O   0  0  0  0  0  0  0  0  0  0  0  0
   13.7210   25.3100   32.7670 C   0  0  0  0  0  0  0  0  0  0  0  0
   14.6100   24.4570   31.9220 C   0  0  0  0  0  0  0  0  0  0  0  0
   15.2710   24.8420   30.7700 C   0  0  0  0  0  0  0  0  0  0  0  0
   16.2230   23.5460   30.1760 S   0  0  0  0  0  0  0  0  0  0  0  0
   15.6650   22.5720   31.4570 C   0  0  0  0  0  0  0  0  0  0  0  0
   16.0920   21.2400   31.5710 N   0  0  0  0  0  0  0  0  0  0  0  0
   17.3960   20.8070   31.3790 C   0  0  0  0  0  0  0  0  0  0  0  0
   17.4660   19.4470   31.5810 C   0  0  0  0  0  0  0  0  0  0  0  0
   16.1620   19.0050   31.8860 C   0  0  0  0  0  0  0  0  0  0  0  0
   15.3440   20.1130   31.8780 C   0  0  0  0  0  0  0  0  0  0  0  0
   14.8280   23.1370   32.3030 N   0  0  0  0  0  0  0  0  0  0  0  0
   11.6610   24.4380   37.0240 S   0  0  0  0  0  0  0  0  0  0  0  0
   11.7390   23.1110   38.1100 C   0  0  0  0  0  0  0  0  0  0  0  0
   11.2900   23.0370   39.4350 C   0  0  0  0  0  0  0  0  0  0  0  0
   12.2431   21.4590   43.7808 H   0  0  0  0  0  0  0  0  0  0  0  0
   12.8354   20.4254   42.4363 H   0  0  0  0  0  0  0  0  0  0  0  0
   13.1859   22.1872   42.4363 H   0  0  0  0  0  0  0  0  0  0  0  0
   12.3046   19.8260   40.0937 H   0  0  0  0  0  0  0  0  0  0  0  0
   13.0575   19.9868   37.7117 H   0  0  0  0  0  0  0  0  0  0  0  0
   12.1210   23.6990   33.8440 H   0  0  0  0  0  0  0  0  0  0  0  0
   12.6979   25.2443   32.3682 H   0  0  0  0  0  0  0  0  0  0  0  0
   14.1275   26.3313   32.7257 H   0  0  0  0  0  0  0  0  0  0  0  0
   15.1968   25.8351   30.3029 H   0  0  0  0  0  0  0  0  0  0  0  0
   18.2445   21.4519   31.1069 H   0  0  0  0  0  0  0  0  0  0  0  0
   18.3693   18.8225   31.5166 H   0  0  0  0  0  0  0  0  0  0  0  0
   15.8555   17.9688   32.0918 H   0  0  0  0  0  0  0  0  0  0  0  0
   14.2634   20.1053   32.0835 H   0  0  0  0  0  0  0  0  0  0  0  0
   10.8002   23.8945   39.9195 H   0  0  0  0  0  0  0  0  0  0  0  0
  1  2  1  0
  2  3  2  0
  2  4  2  0
  2  5  1  0
  5  6  2  0
  6  7  1  0
  7  8  2  0
  8  9  1  0
  9 10  2  0
 10 11  1  0
 11 12  1  0
 12 13  2  0
 12 14  1  0
 14 15  1  0
 15 16  2  0
 16 17  1  0
 17 18  1  0
 18 19  1  0
 19 20  1  0
 20 21  2  0
 21 22  1  0
 22 23  2  0
 18 24  2  0
 10 25  1  0
 25 26  1  0
 26 27  2  0
 27  5  1  0
 26  8  1  0
 24 15  1  0
 23 19  1  0
  1 28  1  0
  1 29  1  0
  1 30  1  0
  6 31  1  0
  7 32  1  0
 11 33  1  0
 14 34  1  0
 14 35  1  0
 16 36  1  0
 20 37  1  0
 21 38  1  0
 22 39  1  0
 23 40  1  0
 27 41  1  0
M  END
>  <meeko>  (9) 
{"is_sidechain": [false], "free_energy": -8.002, "intermolecular_energy": -9.073, "internal_energy": -0.857}

> <PREPARED_BY>
siam chowdhury
Computational and Medicinal Chemistry
[Dr. Alam's Research Team] www.alamresearch.org
Arkansas State University

$$$$
XCJ_redock_out
     RDKit          3D

 41 44  0  0  0  0  0  0  0  0999 V2000
    3.1980   20.8720   23.1410 C   0  0  0  0  0  0  0  0  0  0  0  0
    4.0100   21.6110   24.5340 S   0  0  0  0  0  0  0  0  0  0  0  0
    5.2120   22.2710   24.0600 O   0  0  0  0  0  0  0  0  0  0  0  0
    3.0190   22.3360   25.3050 O   0  0  0  0  0  0  0  0  0  0  0  0
    4.5180   20.2070   25.5000 C   0  0  0  0  0  0  0  0  0  0  0  0
    4.8760   19.0180   24.8630 C   0  0  0  0  0  0  0  0  0  0  0  0
    5.2760   17.9120   25.6260 C   0  0  0  0  0  0  0  0  0  0  0  0
    5.2960   17.9970   27.0350 C   0  0  0  0  0  0  0  0  0  0  0  0
    5.6790   16.9970   27.9160 N   0  0  0  0  0  0  0  0  0  0  0  0
    5.5080   17.4050   29.1510 C   0  0  0  0  0  0  0  0  0  0  0  0
    5.7970   16.6020   30.2250 N   0  0  0  0  0  0  0  0  0  0  0  0
    5.8430   15.2250   30.2400 C   0  0  0  0  0  0  0  0  0  0  0  0
    5.6100   14.4800   29.2890 O   0  0  0  0  0  0  0  0  0  0  0  0
    6.1610   14.6050   31.5940 C   0  0  0  0  0  0  0  0  0  0  0  0
    7.6040   14.6820   31.9750 C   0  0  0  0  0  0  0  0  0  0  0  0
    8.6780   14.8270   31.1150 C   0  0  0  0  0  0  0  0  0  0  0  0
   10.1370   14.9300   32.0080 S   0  0  0  0  0  0  0  0  0  0  0  0
    9.2500   14.7420   33.4490 C   0  0  0  0  0  0  0  0  0  0  0  0
    9.9070   14.7220   34.6880 N   0  0  0  0  0  0  0  0  0  0  0  0
   11.2820   14.6230   34.8540 C   0  0  0  0  0  0  0  0  0  0  0  0
   11.5880   14.6450   36.1960 C   0  0  0  0  0  0  0  0  0  0  0  0
   10.3690   14.7360   36.8990 C   0  0  0  0  0  0  0  0  0  0  0  0
    9.3610   14.7850   35.9610 C   0  0  0  0  0  0  0  0  0  0  0  0
    7.9440   14.6160   33.3220 N   0  0  0  0  0  0  0  0  0  0  0  0
    4.9720   19.0090   29.3400 S   0  0  0  0  0  0  0  0  0  0  0  0
    4.8970   19.1930   27.6360 C   0  0  0  0  0  0  0  0  0  0  0  0
    4.5060   20.3160   26.8940 C   0  0  0  0  0  0  0  0  0  0  0  0
    2.4278   20.1710   23.4950 H   0  0  0  0  0  0  0  0  0  0  0  0
    2.7268   21.6576   22.5320 H   0  0  0  0  0  0  0  0  0  0  0  0
    3.9359   20.3291   22.5320 H   0  0  0  0  0  0  0  0  0  0  0  0
    4.8444   18.9488   23.7656 H   0  0  0  0  0  0  0  0  0  0  0  0
    5.5742   16.9782   25.1269 H   0  0  0  0  0  0  0  0  0  0  0  0
    5.9940   17.0580   31.0740 H   0  0  0  0  0  0  0  0  0  0  0  0
    5.5724   15.1294   32.3612 H   0  0  0  0  0  0  0  0  0  0  0  0
    5.9079   13.5370   31.5218 H   0  0  0  0  0  0  0  0  0  0  0  0
    8.6059   14.8699   30.0182 H   0  0  0  0  0  0  0  0  0  0  0  0
   12.0148   14.5397   34.0379 H   0  0  0  0  0  0  0  0  0  0  0  0
   12.5946   14.6000   36.6372 H   0  0  0  0  0  0  0  0  0  0  0  0
   10.2459   14.7628   37.9918 H   0  0  0  0  0  0  0  0  0  0  0  0
    8.2873   14.8623   36.1874 H   0  0  0  0  0  0  0  0  0  0  0  0
    4.2008   21.2491   27.3902 H   0  0  0  0  0  0  0  0  0  0  0  0
  1  2  1  0
  2  3  2  0
  2  4  2  0
  2  5  1  0
  5  6  2  0
  6  7  1  0
  7  8  2  0
  8  9  1  0
  9 10  2  0
 10 11  1  0
 11 12  1  0
 12 13  2  0
 12 14  1  0
 14 15  1  0
 15 16  2  0
 16 17  1  0
 17 18  1  0
 18 19  1  0
 19 20  1  0
 20 21  2  0
 21 22  1  0
 22 23  2  0
 18 24  2  0
 10 25  1  0
 25 26  1  0
 26 27  2  0
 27  5  1  0
 26  8  1  0
 24 15  1  0
 23 19  1  0
  1 28  1  0
  1 29  1  0
  1 30  1  0
  6 31  1  0
  7 32  1  0
 11 33  1  0
 14 34  1  0
 14 35  1  0
 16 36  1  0
 20 37  1  0
 21 38  1  0
 22 39  1  0
 23 40  1  0
 27 41  1  0
M  END
>  <meeko>  (10) 
{"is_sidechain": [false], "free_energy": -7.923, "intermolecular_energy": -9.677, "internal_energy": -0.151}

> <PREPARED_BY>
siam chowdhury
Computational and Medicinal Chemistry
[Dr. Alam's Research Team] www.alamresearch.org
Arkansas State University

$$$$
XCJ_redock_out
     RDKit          3D

 41 44  0  0  0  0  0  0  0  0999 V2000
   19.2560   17.2630   38.4790 C   0  0  0  0  0  0  0  0  0  0  0  0
   17.9080   16.1160   38.3710 S   0  0  0  0  0  0  0  0  0  0  0  0
   18.0280   15.3920   37.1200 O   0  0  0  0  0  0  0  0  0  0  0  0
   17.8110   15.4090   39.6340 O   0  0  0  0  0  0  0  0  0  0  0  0
   16.4840   17.1740   38.2400 C   0  0  0  0  0  0  0  0  0  0  0  0
   15.2340   16.6250   37.9500 C   0  0  0  0  0  0  0  0  0  0  0  0
   14.1140   17.4610   37.8470 C   0  0  0  0  0  0  0  0  0  0  0  0
   14.2550   18.8550   38.0160 C   0  0  0  0  0  0  0  0  0  0  0  0
   13.2420   19.8000   37.9570 N   0  0  0  0  0  0  0  0  0  0  0  0
   13.7480   21.0020   38.0950 C   0  0  0  0  0  0  0  0  0  0  0  0
   12.9630   22.1260   38.0610 N   0  0  0  0  0  0  0  0  0  0  0  0
   11.8770   22.4030   38.8630 C   0  0  0  0  0  0  0  0  0  0  0  0
   11.4150   21.6700   39.7380 O   0  0  0  0  0  0  0  0  0  0  0  0
   11.1770   23.7230   38.5700 C   0  0  0  0  0  0  0  0  0  0  0  0
   11.7960   24.5060   37.4580 C   0  0  0  0  0  0  0  0  0  0  0  0
   12.1890   25.8320   37.5000 C   0  0  0  0  0  0  0  0  0  0  0  0
   12.9050   26.2820   36.0090 S   0  0  0  0  0  0  0  0  0  0  0  0
   12.6120   24.7130   35.4140 C   0  0  0  0  0  0  0  0  0  0  0  0
   12.9820   24.3720   34.1050 N   0  0  0  0  0  0  0  0  0  0  0  0
   13.5720   25.2400   33.1970 C   0  0  0  0  0  0  0  0  0  0  0  0
   13.8140   24.5780   32.0140 C   0  0  0  0  0  0  0  0  0  0  0  0
   13.3410   23.2600   32.1720 C   0  0  0  0  0  0  0  0  0  0  0  0
   12.8420   23.1560   33.4520 C   0  0  0  0  0  0  0  0  0  0  0  0
   12.0280   23.8700   36.2420 N   0  0  0  0  0  0  0  0  0  0  0  0
   15.4230   21.0780   38.3860 S   0  0  0  0  0  0  0  0  0  0  0  0
   15.5280   19.3700   38.2710 C   0  0  0  0  0  0  0  0  0  0  0  0
   16.6610   18.5530   38.3910 C   0  0  0  0  0  0  0  0  0  0  0  0
   19.4866   17.4592   39.5365 H   0  0  0  0  0  0  0  0  0  0  0  0
   20.1408   16.8366   37.9837 H   0  0  0  0  0  0  0  0  0  0  0  0
   18.9768   18.2047   37.9837 H   0  0  0  0  0  0  0  0  0  0  0  0
   15.1283   15.5400   37.8028 H   0  0  0  0  0  0  0  0  0  0  0  0
   13.1244   17.0304   37.6343 H   0  0  0  0  0  0  0  0  0  0  0  0
   13.2000   22.8070   37.3930 H   0  0  0  0  0  0  0  0  0  0  0  0
   10.1321   23.5082   38.3018 H   0  0  0  0  0  0  0  0  0  0  0  0
   11.2637   24.3374   39.4783 H   0  0  0  0  0  0  0  0  0  0  0  0
   12.0606   26.5001   38.3644 H   0  0  0  0  0  0  0  0  0  0  0  0
   13.8101   26.2960   33.3925 H   0  0  0  0  0  0  0  0  0  0  0  0
   14.2875   24.9989   31.1147 H   0  0  0  0  0  0  0  0  0  0  0  0
   13.3656   22.4628   31.4145 H   0  0  0  0  0  0  0  0  0  0  0  0
   12.4004   22.2483   33.8891 H   0  0  0  0  0  0  0  0  0  0  0  0
   17.6532   18.9811   38.5965 H   0  0  0  0  0  0  0  0  0  0  0  0
  1  2  1  0
  2  3  2  0
  2  4  2  0
  2  5  1  0
  5  6  2  0
  6  7  1  0
  7  8  2  0
  8  9  1  0
  9 10  2  0
 10 11  1  0
 11 12  1  0
 12 13  2  0
 12 14  1  0
 14 15  1  0
 15 16  2  0
 16 17  1  0
 17 18  1  0
 18 19  1  0
 19 20  1  0
 20 21  2  0
 21 22  1  0
 22 23  2  0
 18 24  2  0
 10 25  1  0
 25 26  1  0
 26 27  2  0
 27  5  1  0
 26  8  1  0
 24 15  1  0
 23 19  1  0
  1 28  1  0
  1 29  1  0
  1 30  1  0
  6 31  1  0
  7 32  1  0
 11 33  1  0
 14 34  1  0
 14 35  1  0
 16 36  1  0
 20 37  1  0
 21 38  1  0
 22 39  1  0
 23 40  1  0
 27 41  1  0
M  END
>  <meeko>  (11) 
{"is_sidechain": [false], "free_energy": -7.897, "intermolecular_energy": -9.252, "internal_energy": -0.542}

> <PREPARED_BY>
siam chowdhury
Computational and Medicinal Chemistry
[Dr. Alam's Research Team] www.alamresearch.org
Arkansas State University

$$$$
XCJ_redock_out
     RDKit          3D

 41 44  0  0  0  0  0  0  0  0999 V2000
   15.7650   23.6190   28.6200 C   0  0  0  0  0  0  0  0  0  0  0  0
   15.3660   24.2660   30.2220 S   0  0  0  0  0  0  0  0  0  0  0  0
   16.6060   24.5780   30.9060 O   0  0  0  0  0  0  0  0  0  0  0  0
   14.3320   25.2710   30.0610 O   0  0  0  0  0  0  0  0  0  0  0  0
   14.6340   22.8740   31.0520 C   0  0  0  0  0  0  0  0  0  0  0  0
   13.3660   22.9930   31.6220 C   0  0  0  0  0  0  0  0  0  0  0  0
   12.7910   21.8940   32.2760 C   0  0  0  0  0  0  0  0  0  0  0  0
   13.5020   20.6790   32.3730 C   0  0  0  0  0  0  0  0  0  0  0  0
   13.0600   19.5100   32.9730 N   0  0  0  0  0  0  0  0  0  0  0  0
   14.0090   18.6050   32.9340 C   0  0  0  0  0  0  0  0  0  0  0  0
   13.8390   17.3550   33.4730 N   0  0  0  0  0  0  0  0  0  0  0  0
   14.4380   16.8560   34.6100 C   0  0  0  0  0  0  0  0  0  0  0  0
   15.2470   17.4470   35.3240 O   0  0  0  0  0  0  0  0  0  0  0  0
   14.0810   15.4140   34.9470 C   0  0  0  0  0  0  0  0  0  0  0  0
   12.6130   15.1670   35.0830 C   0  0  0  0  0  0  0  0  0  0  0  0
   11.9190   14.9420   36.2580 C   0  0  0  0  0  0  0  0  0  0  0  0
   10.2460   14.7710   35.9300 S   0  0  0  0  0  0  0  0  0  0  0  0
   10.5680   14.9720   34.2700 C   0  0  0  0  0  0  0  0  0  0  0  0
    9.5230   14.9230   33.3350 N   0  0  0  0  0  0  0  0  0  0  0  0
    8.2060   14.6030   33.6340 C   0  0  0  0  0  0  0  0  0  0  0  0
    7.4440   14.6620   32.4900 C   0  0  0  0  0  0  0  0  0  0  0  0
    8.3100   15.0050   31.4320 C   0  0  0  0  0  0  0  0  0  0  0  0
    9.5680   15.1620   31.9700 C   0  0  0  0  0  0  0  0  0  0  0  0
   11.8280   15.1650   33.9350 N   0  0  0  0  0  0  0  0  0  0  0  0
   15.4330   19.0510   32.1170 S   0  0  0  0  0  0  0  0  0  0  0  0
   14.7830   20.6100   31.8190 C   0  0  0  0  0  0  0  0  0  0  0  0
   15.3730   21.6910   31.1500 C   0  0  0  0  0  0  0  0  0  0  0  0
   16.3393   22.6877   28.7333 H   0  0  0  0  0  0  0  0  0  0  0  0
   14.8371   23.4125   28.0664 H   0  0  0  0  0  0  0  0  0  0  0  0
   16.3661   24.3554   28.0664 H   0  0  0  0  0  0  0  0  0  0  0  0
   12.8194   23.9455   31.5585 H   0  0  0  0  0  0  0  0  0  0  0  0
   11.7854   21.9790   32.7136 H   0  0  0  0  0  0  0  0  0  0  0  0
   13.2250   16.7510   32.9990 H   0  0  0  0  0  0  0  0  0  0  0  0
   14.4682   14.7658   34.1470 H   0  0  0  0  0  0  0  0  0  0  0  0
   14.5327   15.1947   35.9257 H   0  0  0  0  0  0  0  0  0  0  0  0
   12.3747   14.8816   37.2574 H   0  0  0  0  0  0  0  0  0  0  0  0
    7.8288   14.3419   34.6337 H   0  0  0  0  0  0  0  0  0  0  0  0
    6.3624   14.4764   32.4151 H   0  0  0  0  0  0  0  0  0  0  0  0
    8.0328   15.1249   30.3743 H   0  0  0  0  0  0  0  0  0  0  0  0
   10.4704   15.4352   31.4035 H   0  0  0  0  0  0  0  0  0  0  0  0
   16.3813   21.6116   30.7175 H   0  0  0  0  0  0  0  0  0  0  0  0
  1  2  1  0
  2  3  2  0
  2  4  2  0
  2  5  1  0
  5  6  2  0
  6  7  1  0
  7  8  2  0
  8  9  1  0
  9 10  2  0
 10 11  1  0
 11 12  1  0
 12 13  2  0
 12 14  1  0
 14 15  1  0
 15 16  2  0
 16 17  1  0
 17 18  1  0
 18 19  1  0
 19 20  1  0
 20 21  2  0
 21 22  1  0
 22 23  2  0
 18 24  2  0
 10 25  1  0
 25 26  1  0
 26 27  2  0
 27  5  1  0
 26  8  1  0
 24 15  1  0
 23 19  1  0
  1 28  1  0
  1 29  1  0
  1 30  1  0
  6 31  1  0
  7 32  1  0
 11 33  1  0
 14 34  1  0
 14 35  1  0
 16 36  1  0
 20 37  1  0
 21 38  1  0
 22 39  1  0
 23 40  1  0
 27 41  1  0
M  END
>  <meeko>  (12) 
{"is_sidechain": [false], "free_energy": -7.877, "intermolecular_energy": -8.92, "internal_energy": -0.848}

> <PREPARED_BY>
siam chowdhury
Computational and Medicinal Chemistry
[Dr. Alam's Research Team] www.alamresearch.org
Arkansas State University

$$$$
XCJ_redock_out
     RDKit          3D

 41 44  0  0  0  0  0  0  0  0999 V2000
    5.7810   14.2430   32.4200 C   0  0  0  0  0  0  0  0  0  0  0  0
    6.1950   14.3270   30.6980 S   0  0  0  0  0  0  0  0  0  0  0  0
    7.6110   14.6210   30.5860 O   0  0  0  0  0  0  0  0  0  0  0  0
    5.6210   13.1700   30.0360 O   0  0  0  0  0  0  0  0  0  0  0  0
    5.3060   15.7610   30.1350 C   0  0  0  0  0  0  0  0  0  0  0  0
    3.9170   15.7110   30.0070 C   0  0  0  0  0  0  0  0  0  0  0  0
    3.2180   16.8430   29.5640 C   0  0  0  0  0  0  0  0  0  0  0  0
    3.9200   18.0200   29.2300 C   0  0  0  0  0  0  0  0  0  0  0  0
    3.3680   19.2140   28.7930 N   0  0  0  0  0  0  0  0  0  0  0  0
    4.3220   20.0690   28.5140 C   0  0  0  0  0  0  0  0  0  0  0  0
    4.0510   21.3300   28.0460 N   0  0  0  0  0  0  0  0  0  0  0  0
    3.5120   22.3790   28.7580 C   0  0  0  0  0  0  0  0  0  0  0  0
    3.1630   22.3530   29.9380 O   0  0  0  0  0  0  0  0  0  0  0  0
    3.2940   23.6570   27.9590 C   0  0  0  0  0  0  0  0  0  0  0  0
    3.7360   23.5670   26.5350 C   0  0  0  0  0  0  0  0  0  0  0  0
    4.7610   24.2820   25.9410 C   0  0  0  0  0  0  0  0  0  0  0  0
    4.9460   23.8010   24.3070 S   0  0  0  0  0  0  0  0  0  0  0  0
    3.6450   22.7180   24.4960 C   0  0  0  0  0  0  0  0  0  0  0  0
    3.2180   21.9300   23.4170 N   0  0  0  0  0  0  0  0  0  0  0  0
    3.2190   20.5420   23.3990 C   0  0  0  0  0  0  0  0  0  0  0  0
    2.7250   20.0950   22.1950 C   0  0  0  0  0  0  0  0  0  0  0  0
    2.4270   21.2340   21.4200 C   0  0  0  0  0  0  0  0  0  0  0  0
    2.7310   22.3390   22.1840 C   0  0  0  0  0  0  0  0  0  0  0  0
    3.0840   22.6770   25.6870 N   0  0  0  0  0  0  0  0  0  0  0  0
    5.9100   19.5450   28.8300 S   0  0  0  0  0  0  0  0  0  0  0  0
    5.3130   18.0190   29.3390 C   0  0  0  0  0  0  0  0  0  0  0  0
    6.0320   16.9040   29.7920 C   0  0  0  0  0  0  0  0  0  0  0  0
    6.6825   14.4259   33.0232 H   0  0  0  0  0  0  0  0  0  0  0  0
    5.0232   15.0057   32.6526 H   0  0  0  0  0  0  0  0  0  0  0  0
    5.3804   13.2453   32.6526 H   0  0  0  0  0  0  0  0  0  0  0  0
    3.3728   14.7872   30.2527 H   0  0  0  0  0  0  0  0  0  0  0  0
    2.1219   16.8131   29.4769 H   0  0  0  0  0  0  0  0  0  0  0  0
    4.2650   21.5030   27.1020 H   0  0  0  0  0  0  0  0  0  0  0  0
    2.2201   23.8948   27.9733 H   0  0  0  0  0  0  0  0  0  0  0  0
    3.9074   24.4371   28.4335 H   0  0  0  0  0  0  0  0  0  0  0  0
    5.3688   25.0480   26.4447 H   0  0  0  0  0  0  0  0  0  0  0  0
    3.5623   19.8977   24.2218 H   0  0  0  0  0  0  0  0  0  0  0  0
    2.5883   19.0459   21.8939 H   0  0  0  0  0  0  0  0  0  0  0  0
    2.0262   21.2394   20.3956 H   0  0  0  0  0  0  0  0  0  0  0  0
    2.6068   23.3846   21.8656 H   0  0  0  0  0  0  0  0  0  0  0  0
    7.1286   16.9284   29.8744 H   0  0  0  0  0  0  0  0  0  0  0  0
  1  2  1  0
  2  3  2  0
  2  4  2  0
  2  5  1  0
  5  6  2  0
  6  7  1  0
  7  8  2  0
  8  9  1  0
  9 10  2  0
 10 11  1  0
 11 12  1  0
 12 13  2  0
 12 14  1  0
 14 15  1  0
 15 16  2  0
 16 17  1  0
 17 18  1  0
 18 19  1  0
 19 20  1  0
 20 21  2  0
 21 22  1  0
 22 23  2  0
 18 24  2  0
 10 25  1  0
 25 26  1  0
 26 27  2  0
 27  5  1  0
 26  8  1  0
 24 15  1  0
 23 19  1  0
  1 28  1  0
  1 29  1  0
  1 30  1  0
  6 31  1  0
  7 32  1  0
 11 33  1  0
 14 34  1  0
 14 35  1  0
 16 36  1  0
 20 37  1  0
 21 38  1  0
 22 39  1  0
 23 40  1  0
 27 41  1  0
M  END
>  <meeko>  (13) 
{"is_sidechain": [false], "free_energy": -7.803, "intermolecular_energy": -8.814, "internal_energy": -0.859}

> <PREPARED_BY>
siam chowdhury
Computational and Medicinal Chemistry
[Dr. Alam's Research Team] www.alamresearch.org
Arkansas State University

$$$$
XCJ_redock_out
     RDKit          3D

 41 44  0  0  0  0  0  0  0  0999 V2000
    5.7030   16.3120   29.4780 C   0  0  0  0  0  0  0  0  0  0  0  0
    5.4590   14.6850   30.1410 S   0  0  0  0  0  0  0  0  0  0  0  0
    4.0910   14.5890   30.6130 O   0  0  0  0  0  0  0  0  0  0  0  0
    5.9870   13.7240   29.1910 O   0  0  0  0  0  0  0  0  0  0  0  0
    6.5190   14.6640   31.5690 C   0  0  0  0  0  0  0  0  0  0  0  0
    5.9730   14.4590   32.8370 C   0  0  0  0  0  0  0  0  0  0  0  0
    6.8100   14.4430   33.9610 C   0  0  0  0  0  0  0  0  0  0  0  0
    8.1970   14.6540   33.8110 C   0  0  0  0  0  0  0  0  0  0  0  0
    9.1460   14.6530   34.8220 N   0  0  0  0  0  0  0  0  0  0  0  0
   10.3230   14.9490   34.3260 C   0  0  0  0  0  0  0  0  0  0  0  0
   11.4420   15.0300   35.1160 N   0  0  0  0  0  0  0  0  0  0  0  0
   12.5790   15.7670   34.8670 C   0  0  0  0  0  0  0  0  0  0  0  0
   12.7900   16.4660   33.8750 O   0  0  0  0  0  0  0  0  0  0  0  0
   13.6770   15.6350   35.9140 C   0  0  0  0  0  0  0  0  0  0  0  0
   14.1620   16.9400   36.4560 C   0  0  0  0  0  0  0  0  0  0  0  0
   15.2570   17.6610   36.0160 C   0  0  0  0  0  0  0  0  0  0  0  0
   15.3900   19.1260   36.8940 S   0  0  0  0  0  0  0  0  0  0  0  0
   14.0210   18.6840   37.8060 C   0  0  0  0  0  0  0  0  0  0  0  0
   13.5440   19.5270   38.8210 N   0  0  0  0  0  0  0  0  0  0  0  0
   13.9030   19.4380   40.1590 C   0  0  0  0  0  0  0  0  0  0  0  0
   13.2630   20.4230   40.8760 C   0  0  0  0  0  0  0  0  0  0  0  0
   12.4570   21.1400   39.9680 C   0  0  0  0  0  0  0  0  0  0  0  0
   12.6470   20.5800   38.7240 C   0  0  0  0  0  0  0  0  0  0  0  0
   13.4620   17.5290   37.5040 N   0  0  0  0  0  0  0  0  0  0  0  0
   10.3920   15.1590   32.6390 S   0  0  0  0  0  0  0  0  0  0  0  0
    8.7010   14.8910   32.5290 C   0  0  0  0  0  0  0  0  0  0  0  0
    7.8850   14.8990   31.3890 C   0  0  0  0  0  0  0  0  0  0  0  0
    5.8109   17.0317   30.3029 H   0  0  0  0  0  0  0  0  0  0  0  0
    6.6129   16.3234   28.8600 H   0  0  0  0  0  0  0  0  0  0  0  0
    4.8365   16.5899   28.8600 H   0  0  0  0  0  0  0  0  0  0  0  0
    4.8893   14.3105   32.9538 H   0  0  0  0  0  0  0  0  0  0  0  0
    6.3856   14.2659   34.9602 H   0  0  0  0  0  0  0  0  0  0  0  0
   11.4310   14.5070   35.9480 H   0  0  0  0  0  0  0  0  0  0  0  0
   13.2867   15.0369   36.7506 H   0  0  0  0  0  0  0  0  0  0  0  0
   14.5349   15.1594   35.4162 H   0  0  0  0  0  0  0  0  0  0  0  0
   15.9430   17.3404   35.2181 H   0  0  0  0  0  0  0  0  0  0  0  0
   14.5938   18.6936   40.5817 H   0  0  0  0  0  0  0  0  0  0  0  0
   13.3617   20.6149   41.9546 H   0  0  0  0  0  0  0  0  0  0  0  0
   11.7992   21.9883   40.2083 H   0  0  0  0  0  0  0  0  0  0  0  0
   12.1616   20.9165   37.7960 H   0  0  0  0  0  0  0  0  0  0  0  0
    8.3046   15.0835   30.3891 H   0  0  0  0  0  0  0  0  0  0  0  0
  1  2  1  0
  2  3  2  0
  2  4  2  0
  2  5  1  0
  5  6  2  0
  6  7  1  0
  7  8  2  0
  8  9  1  0
  9 10  2  0
 10 11  1  0
 11 12  1  0
 12 13  2  0
 12 14  1  0
 14 15  1  0
 15 16  2  0
 16 17  1  0
 17 18  1  0
 18 19  1  0
 19 20  1  0
 20 21  2  0
 21 22  1  0
 22 23  2  0
 18 24  2  0
 10 25  1  0
 25 26  1  0
 26 27  2  0
 27  5  1  0
 26  8  1  0
 24 15  1  0
 23 19  1  0
  1 28  1  0
  1 29  1  0
  1 30  1  0
  6 31  1  0
  7 32  1  0
 11 33  1  0
 14 34  1  0
 14 35  1  0
 16 36  1  0
 20 37  1  0
 21 38  1  0
 22 39  1  0
 23 40  1  0
 27 41  1  0
M  END
>  <meeko>  (14) 
{"is_sidechain": [false], "free_energy": -7.721, "intermolecular_energy": -9.486, "internal_energy": -0.082}

> <PREPARED_BY>
siam chowdhury
Computational and Medicinal Chemistry
[Dr. Alam's Research Team] www.alamresearch.org
Arkansas State University

$$$$
XCJ_redock_out
     RDKit          3D

 41 44  0  0  0  0  0  0  0  0999 V2000
    5.3890   17.5980   28.7360 C   0  0  0  0  0  0  0  0  0  0  0  0
    4.8550   15.9250   28.9830 S   0  0  0  0  0  0  0  0  0  0  0  0
    3.4590   15.9490   29.3750 O   0  0  0  0  0  0  0  0  0  0  0  0
    5.2960   15.1360   27.8490 O   0  0  0  0  0  0  0  0  0  0  0  0
    5.7980   15.4020   30.3980 C   0  0  0  0  0  0  0  0  0  0  0  0
    5.1720   14.7000   31.4290 C   0  0  0  0  0  0  0  0  0  0  0  0
    5.9180   14.2880   32.5420 C   0  0  0  0  0  0  0  0  0  0  0  0
    7.2910   14.6020   32.6280 C   0  0  0  0  0  0  0  0  0  0  0  0
    8.1540   14.2540   33.6550 N   0  0  0  0  0  0  0  0  0  0  0  0
    9.3390   14.7700   33.4330 C   0  0  0  0  0  0  0  0  0  0  0  0
   10.3820   14.5900   34.3060 N   0  0  0  0  0  0  0  0  0  0  0  0
   10.3710   14.8080   35.6670 C   0  0  0  0  0  0  0  0  0  0  0  0
    9.4190   15.2240   36.3270 O   0  0  0  0  0  0  0  0  0  0  0  0
   11.6950   14.5510   36.3730 C   0  0  0  0  0  0  0  0  0  0  0  0
   12.7200   15.6150   36.1490 C   0  0  0  0  0  0  0  0  0  0  0  0
   13.7020   16.0160   37.0370 C   0  0  0  0  0  0  0  0  0  0  0  0
   14.6860   17.2230   36.3220 S   0  0  0  0  0  0  0  0  0  0  0  0
   13.7250   17.1500   34.9170 C   0  0  0  0  0  0  0  0  0  0  0  0
   14.0060   17.9820   33.8230 N   0  0  0  0  0  0  0  0  0  0  0  0
   13.1160   18.2740   32.8000 C   0  0  0  0  0  0  0  0  0  0  0  0
   13.7100   19.1290   31.9000 C   0  0  0  0  0  0  0  0  0  0  0  0
   15.0230   19.3640   32.3550 C   0  0  0  0  0  0  0  0  0  0  0  0
   15.1800   18.6600   33.5280 C   0  0  0  0  0  0  0  0  0  0  0  0
   12.7280   16.2880   34.9310 N   0  0  0  0  0  0  0  0  0  0  0  0
    9.5220   15.6180   31.9700 S   0  0  0  0  0  0  0  0  0  0  0  0
    7.8720   15.3370   31.5920 C   0  0  0  0  0  0  0  0  0  0  0  0
    7.1510   15.7480   30.4630 C   0  0  0  0  0  0  0  0  0  0  0  0
    5.5433   18.0815   29.7119 H   0  0  0  0  0  0  0  0  0  0  0  0
    6.3331   17.6020   28.1714 H   0  0  0  0  0  0  0  0  0  0  0  0
    4.6218   18.1482   28.1714 H   0  0  0  0  0  0  0  0  0  0  0  0
    4.0978   14.4710   31.3685 H   0  0  0  0  0  0  0  0  0  0  0  0
    5.4327   13.7195   33.3490 H   0  0  0  0  0  0  0  0  0  0  0  0
   11.2280   14.2700   33.9200 H   0  0  0  0  0  0  0  0  0  0  0  0
   11.5024   14.4783   37.4536 H   0  0  0  0  0  0  0  0  0  0  0  0
   12.1047   13.6209   35.9522 H   0  0  0  0  0  0  0  0  0  0  0  0
   13.8322   15.6179   38.0541 H   0  0  0  0  0  0  0  0  0  0  0  0
   12.0914   17.8819   32.7202 H   0  0  0  0  0  0  0  0  0  0  0  0
   13.2469   19.5499   30.9954 H   0  0  0  0  0  0  0  0  0  0  0  0
   15.7810   19.9925   31.8646 H   0  0  0  0  0  0  0  0  0  0  0  0
   16.0955   18.6385   34.1375 H   0  0  0  0  0  0  0  0  0  0  0  0
    7.6320   16.3219   29.6572 H   0  0  0  0  0  0  0  0  0  0  0  0
  1  2  1  0
  2  3  2  0
  2  4  2  0
  2  5  1  0
  5  6  2  0
  6  7  1  0
  7  8  2  0
  8  9  1  0
  9 10  2  0
 10 11  1  0
 11 12  1  0
 12 13  2  0
 12 14  1  0
 14 15  1  0
 15 16  2  0
 16 17  1  0
 17 18  1  0
 18 19  1  0
 19 20  1  0
 20 21  2  0
 21 22  1  0
 22 23  2  0
 18 24  2  0
 10 25  1  0
 25 26  1  0
 26 27  2  0
 27  5  1  0
 26  8  1  0
 24 15  1  0
 23 19  1  0
  1 28  1  0
  1 29  1  0
  1 30  1  0
  6 31  1  0
  7 32  1  0
 11 33  1  0
 14 34  1  0
 14 35  1  0
 16 36  1  0
 20 37  1  0
 21 38  1  0
 22 39  1  0
 23 40  1  0
 27 41  1  0
M  END
>  <meeko>  (15) 
{"is_sidechain": [false], "free_energy": -7.58, "intermolecular_energy": -8.655, "internal_energy": -0.73}

> <PREPARED_BY>
siam chowdhury
Computational and Medicinal Chemistry
[Dr. Alam's Research Team] www.alamresearch.org
Arkansas State University

$$$$
XCJ_redock_out
     RDKit          3D

 41 44  0  0  0  0  0  0  0  0999 V2000
   12.6440   21.6950   42.3930 C   0  0  0  0  0  0  0  0  0  0  0  0
   10.9590   21.8160   41.8550 S   0  0  0  0  0  0  0  0  0  0  0  0
   10.4480   20.4720   41.6600 O   0  0  0  0  0  0  0  0  0  0  0  0
   10.2720   22.7540   42.7220 O   0  0  0  0  0  0  0  0  0  0  0  0
   11.0970   22.5720   40.2510 C   0  0  0  0  0  0  0  0  0  0  0  0
   10.1550   23.5180   39.8460 C   0  0  0  0  0  0  0  0  0  0  0  0
   10.2660   24.1140   38.5810 C   0  0  0  0  0  0  0  0  0  0  0  0
   11.3160   23.7420   37.7160 C   0  0  0  0  0  0  0  0  0  0  0  0
   11.5620   24.2500   36.4490 N   0  0  0  0  0  0  0  0  0  0  0  0
   12.5810   23.6260   35.9100 C   0  0  0  0  0  0  0  0  0  0  0  0
   13.0280   23.9250   34.6480 N   0  0  0  0  0  0  0  0  0  0  0  0
   12.8470   23.1760   33.5060 C   0  0  0  0  0  0  0  0  0  0  0  0
   12.2660   22.0930   33.4320 O   0  0  0  0  0  0  0  0  0  0  0  0
   13.4890   23.7490   32.2500 C   0  0  0  0  0  0  0  0  0  0  0  0
   14.7360   23.0420   31.8270 C   0  0  0  0  0  0  0  0  0  0  0  0
   15.5670   22.2820   32.6310 C   0  0  0  0  0  0  0  0  0  0  0  0
   16.8400   21.6150   31.6980 S   0  0  0  0  0  0  0  0  0  0  0  0
   16.2210   22.4030   30.3200 C   0  0  0  0  0  0  0  0  0  0  0  0
   16.8670   22.2750   29.0820 N   0  0  0  0  0  0  0  0  0  0  0  0
   18.0780   21.6270   28.8820 C   0  0  0  0  0  0  0  0  0  0  0  0
   18.4150   21.6780   27.5490 C   0  0  0  0  0  0  0  0  0  0  0  0
   17.4000   22.4000   26.8910 C   0  0  0  0  0  0  0  0  0  0  0  0
   16.4670   22.7510   27.8420 C   0  0  0  0  0  0  0  0  0  0  0  0
   15.1310   23.1220   30.4960 N   0  0  0  0  0  0  0  0  0  0  0  0
   13.3550   22.4720   36.8930 S   0  0  0  0  0  0  0  0  0  0  0  0
   12.2200   22.7660   38.1450 C   0  0  0  0  0  0  0  0  0  0  0  0
   12.1360   22.1660   39.4090 C   0  0  0  0  0  0  0  0  0  0  0  0
   12.6786   21.6925   43.4925 H   0  0  0  0  0  0  0  0  0  0  0  0
   13.0851   20.7629   42.0102 H   0  0  0  0  0  0  0  0  0  0  0  0
   13.2138   22.5545   42.0102 H   0  0  0  0  0  0  0  0  0  0  0  0
    9.3281   23.7956   40.5163 H   0  0  0  0  0  0  0  0  0  0  0  0
    9.5342   24.8714   38.2637 H   0  0  0  0  0  0  0  0  0  0  0  0
   13.5310   24.7650   34.5480 H   0  0  0  0  0  0  0  0  0  0  0  0
   12.7598   23.6849   31.4289 H   0  0  0  0  0  0  0  0  0  0  0  0
   13.7747   24.7853   32.4835 H   0  0  0  0  0  0  0  0  0  0  0  0
   15.4303   22.1284   33.7116 H   0  0  0  0  0  0  0  0  0  0  0  0
   18.6770   21.1460   29.6692 H   0  0  0  0  0  0  0  0  0  0  0  0
   19.3094   21.2375   27.0842 H   0  0  0  0  0  0  0  0  0  0  0  0
   17.3599   22.6390   25.8180 H   0  0  0  0  0  0  0  0  0  0  0  0
   15.5465   23.3210   27.6479 H   0  0  0  0  0  0  0  0  0  0  0  0
   12.8618   21.4030   39.7268 H   0  0  0  0  0  0  0  0  0  0  0  0
  1  2  1  0
  2  3  2  0
  2  4  2  0
  2  5  1  0
  5  6  2  0
  6  7  1  0
  7  8  2  0
  8  9  1  0
  9 10  2  0
 10 11  1  0
 11 12  1  0
 12 13  2  0
 12 14  1  0
 14 15  1  0
 15 16  2  0
 16 17  1  0
 17 18  1  0
 18 19  1  0
 19 20  1  0
 20 21  2  0
 21 22  1  0
 22 23  2  0
 18 24  2  0
 10 25  1  0
 25 26  1  0
 26 27  2  0
 27  5  1  0
 26  8  1  0
 24 15  1  0
 23 19  1  0
  1 28  1  0
  1 29  1  0
  1 30  1  0
  6 31  1  0
  7 32  1  0
 11 33  1  0
 14 34  1  0
 14 35  1  0
 16 36  1  0
 20 37  1  0
 21 38  1  0
 22 39  1  0
 23 40  1  0
 27 41  1  0
M  END
>  <meeko>  (16) 
{"is_sidechain": [false], "free_energy": -7.515, "intermolecular_energy": -8.819, "internal_energy": -0.482}

> <PREPARED_BY>
siam chowdhury
Computational and Medicinal Chemistry
[Dr. Alam's Research Team] www.alamresearch.org
Arkansas State University

$$$$
XCJ_redock_out
     RDKit          3D

 41 44  0  0  0  0  0  0  0  0999 V2000
   12.8500   21.8150   42.1240 C   0  0  0  0  0  0  0  0  0  0  0  0
   11.2140   21.6660   41.4550 S   0  0  0  0  0  0  0  0  0  0  0  0
   10.9400   20.2590   41.2400 O   0  0  0  0  0  0  0  0  0  0  0  0
   10.3210   22.4850   42.2540 O   0  0  0  0  0  0  0  0  0  0  0  0
   11.3570   22.4330   39.8570 C   0  0  0  0  0  0  0  0  0  0  0  0
   10.5360   23.5130   39.5290 C   0  0  0  0  0  0  0  0  0  0  0  0
   10.6500   24.1160   38.2680 C   0  0  0  0  0  0  0  0  0  0  0  0
   11.5790   23.6190   37.3290 C   0  0  0  0  0  0  0  0  0  0  0  0
   11.8130   24.1160   36.0570 N   0  0  0  0  0  0  0  0  0  0  0  0
   12.6960   23.3670   35.4420 C   0  0  0  0  0  0  0  0  0  0  0  0
   13.0990   23.6290   34.1580 N   0  0  0  0  0  0  0  0  0  0  0  0
   12.8690   22.8530   33.0420 C   0  0  0  0  0  0  0  0  0  0  0  0
   12.2750   21.7750   33.0180 O   0  0  0  0  0  0  0  0  0  0  0  0
   13.4710   23.3870   31.7490 C   0  0  0  0  0  0  0  0  0  0  0  0
   14.9640   23.3430   31.7090 C   0  0  0  0  0  0  0  0  0  0  0  0
   15.8070   24.3300   31.2300 C   0  0  0  0  0  0  0  0  0  0  0  0
   17.4420   23.8640   31.4450 S   0  0  0  0  0  0  0  0  0  0  0  0
   16.9160   22.3900   32.1170 C   0  0  0  0  0  0  0  0  0  0  0  0
   17.8490   21.4320   32.5410 N   0  0  0  0  0  0  0  0  0  0  0  0
   18.2800   21.2700   33.8500 C   0  0  0  0  0  0  0  0  0  0  0  0
   19.1850   20.2350   33.9140 C   0  0  0  0  0  0  0  0  0  0  0  0
   19.3490   19.7440   32.6020 C   0  0  0  0  0  0  0  0  0  0  0  0
   18.5240   20.4850   31.7840 C   0  0  0  0  0  0  0  0  0  0  0  0
   15.6120   22.2160   32.2040 N   0  0  0  0  0  0  0  0  0  0  0  0
   13.3570   22.0920   36.3540 S   0  0  0  0  0  0  0  0  0  0  0  0
   12.3580   22.5140   37.6840 C   0  0  0  0  0  0  0  0  0  0  0  0
   12.2710   21.9030   38.9420 C   0  0  0  0  0  0  0  0  0  0  0  0
   12.7986   21.8103   43.2228 H   0  0  0  0  0  0  0  0  0  0  0  0
   13.4644   20.9691   41.7820 H   0  0  0  0  0  0  0  0  0  0  0  0
   13.3015   22.7580   41.7820 H   0  0  0  0  0  0  0  0  0  0  0  0
    9.8023   23.8898   40.2568 H   0  0  0  0  0  0  0  0  0  0  0  0
   10.0151   24.9766   38.0107 H   0  0  0  0  0  0  0  0  0  0  0  0
   13.6070   24.4600   34.0180 H   0  0  0  0  0  0  0  0  0  0  0  0
   13.0849   22.7848   30.9134 H   0  0  0  0  0  0  0  0  0  0  0  0
   13.1822   24.4460   31.6776 H   0  0  0  0  0  0  0  0  0  0  0  0
   15.4759   25.2762   30.7771 H   0  0  0  0  0  0  0  0  0  0  0  0
   17.9489   21.8763   34.7060 H   0  0  0  0  0  0  0  0  0  0  0  0
   19.6864   19.8609   34.8188 H   0  0  0  0  0  0  0  0  0  0  0  0
   20.0115   18.9231   32.2901 H   0  0  0  0  0  0  0  0  0  0  0  0
   18.4170   20.3470   30.6979 H   0  0  0  0  0  0  0  0  0  0  0  0
   12.8992   21.0377   39.2001 H   0  0  0  0  0  0  0  0  0  0  0  0
  1  2  1  0
  2  3  2  0
  2  4  2  0
  2  5  1  0
  5  6  2  0
  6  7  1  0
  7  8  2  0
  8  9  1  0
  9 10  2  0
 10 11  1  0
 11 12  1  0
 12 13  2  0
 12 14  1  0
 14 15  1  0
 15 16  2  0
 16 17  1  0
 17 18  1  0
 18 19  1  0
 19 20  1  0
 20 21  2  0
 21 22  1  0
 22 23  2  0
 18 24  2  0
 10 25  1  0
 25 26  1  0
 26 27  2  0
 27  5  1  0
 26  8  1  0
 24 15  1  0
 23 19  1  0
  1 28  1  0
  1 29  1  0
  1 30  1  0
  6 31  1  0
  7 32  1  0
 11 33  1  0
 14 34  1  0
 14 35  1  0
 16 36  1  0
 20 37  1  0
 21 38  1  0
 22 39  1  0
 23 40  1  0
 27 41  1  0
M  END
>  <meeko>  (17) 
{"is_sidechain": [false], "free_energy": -7.463, "intermolecular_energy": -8.516, "internal_energy": -0.717}

> <PREPARED_BY>
siam chowdhury
Computational and Medicinal Chemistry
[Dr. Alam's Research Team] www.alamresearch.org
Arkansas State University

$$$$
XCJ_redock_out
     RDKit          3D

 41 44  0  0  0  0  0  0  0  0999 V2000
   19.0240   17.2010   38.7230 C   0  0  0  0  0  0  0  0  0  0  0  0
   17.4400   16.5120   39.1250 S   0  0  0  0  0  0  0  0  0  0  0  0
   17.0480   15.6220   38.0490 O   0  0  0  0  0  0  0  0  0  0  0  0
   17.4830   16.0470   40.4980 O   0  0  0  0  0  0  0  0  0  0  0  0
   16.3580   17.9230   39.0710 C   0  0  0  0  0  0  0  0  0  0  0  0
   15.3230   18.0400   40.0000 C   0  0  0  0  0  0  0  0  0  0  0  0
   14.4710   19.1530   39.9560 C   0  0  0  0  0  0  0  0  0  0  0  0
   14.6500   20.1400   38.9630 C   0  0  0  0  0  0  0  0  0  0  0  0
   13.9000   21.2950   38.8040 N   0  0  0  0  0  0  0  0  0  0  0  0
   14.3050   21.9430   37.7390 C   0  0  0  0  0  0  0  0  0  0  0  0
   13.7200   23.1190   37.3410 N   0  0  0  0  0  0  0  0  0  0  0  0
   12.4520   23.2800   36.8250 C   0  0  0  0  0  0  0  0  0  0  0  0
   11.6340   22.3840   36.6150 O   0  0  0  0  0  0  0  0  0  0  0  0
   12.0880   24.7070   36.4400 C   0  0  0  0  0  0  0  0  0  0  0  0
   12.6880   25.1610   35.1500 C   0  0  0  0  0  0  0  0  0  0  0  0
   13.1380   26.4350   34.8510 C   0  0  0  0  0  0  0  0  0  0  0  0
   13.8040   26.4690   33.2720 S   0  0  0  0  0  0  0  0  0  0  0  0
   13.4180   24.8200   33.0910 C   0  0  0  0  0  0  0  0  0  0  0  0
   13.7140   24.1510   31.8940 N   0  0  0  0  0  0  0  0  0  0  0  0
   13.4220   22.8180   31.6380 C   0  0  0  0  0  0  0  0  0  0  0  0
   13.8360   22.4910   30.3670 C   0  0  0  0  0  0  0  0  0  0  0  0
   14.4270   23.6440   29.8130 C   0  0  0  0  0  0  0  0  0  0  0  0
   14.3390   24.6420   30.7580 C   0  0  0  0  0  0  0  0  0  0  0  0
   12.8370   24.2370   34.1200 N   0  0  0  0  0  0  0  0  0  0  0  0
   15.6390   21.2760   36.9200 S   0  0  0  0  0  0  0  0  0  0  0  0
   15.6760   19.9690   38.0300 C   0  0  0  0  0  0  0  0  0  0  0  0
   16.5480   18.8720   38.0620 C   0  0  0  0  0  0  0  0  0  0  0  0
   19.5670   17.4372   39.6500 H   0  0  0  0  0  0  0  0  0  0  0  0
   19.6020   16.4730   38.1348 H   0  0  0  0  0  0  0  0  0  0  0  0
   18.8855   18.1202   38.1348 H   0  0  0  0  0  0  0  0  0  0  0  0
   15.1761   17.2621   40.7638 H   0  0  0  0  0  0  0  0  0  0  0  0
   13.6632   19.2568   40.6954 H   0  0  0  0  0  0  0  0  0  0  0  0
   14.2630   23.9330   37.4340 H   0  0  0  0  0  0  0  0  0  0  0  0
   10.9933   24.7735   36.3544 H   0  0  0  0  0  0  0  0  0  0  0  0
   12.4925   25.3613   37.2263 H   0  0  0  0  0  0  0  0  0  0  0  0
   13.0772   27.2998   35.5280 H   0  0  0  0  0  0  0  0  0  0  0  0
   12.9344   22.1288   32.3432 H   0  0  0  0  0  0  0  0  0  0  0  0
   13.7262   21.5130   29.8757 H   0  0  0  0  0  0  0  0  0  0  0  0
   14.8752   23.7308   28.8122 H   0  0  0  0  0  0  0  0  0  0  0  0
   14.7079   25.6705   30.6310 H   0  0  0  0  0  0  0  0  0  0  0  0
   17.3527   18.7618   37.3201 H   0  0  0  0  0  0  0  0  0  0  0  0
  1  2  1  0
  2  3  2  0
  2  4  2  0
  2  5  1  0
  5  6  2  0
  6  7  1  0
  7  8  2  0
  8  9  1  0
  9 10  2  0
 10 11  1  0
 11 12  1  0
 12 13  2  0
 12 14  1  0
 14 15  1  0
 15 16  2  0
 16 17  1  0
 17 18  1  0
 18 19  1  0
 19 20  1  0
 20 21  2  0
 21 22  1  0
 22 23  2  0
 18 24  2  0
 10 25  1  0
 25 26  1  0
 26 27  2  0
 27  5  1  0
 26  8  1  0
 24 15  1  0
 23 19  1  0
  1 28  1  0
  1 29  1  0
  1 30  1  0
  6 31  1  0
  7 32  1  0
 11 33  1  0
 14 34  1  0
 14 35  1  0
 16 36  1  0
 20 37  1  0
 21 38  1  0
 22 39  1  0
 23 40  1  0
 27 41  1  0
M  END
>  <meeko>  (18) 
{"is_sidechain": [false], "free_energy": -7.366, "intermolecular_energy": -8.434, "internal_energy": -0.674}

> <PREPARED_BY>
siam chowdhury
Computational and Medicinal Chemistry
[Dr. Alam's Research Team] www.alamresearch.org
Arkansas State University

$$$$
XCJ_redock_out
     RDKit          3D

 41 44  0  0  0  0  0  0  0  0999 V2000
   15.8070   24.4770   29.8200 C   0  0  0  0  0  0  0  0  0  0  0  0
   15.1380   25.7470   30.8610 S   0  0  0  0  0  0  0  0  0  0  0  0
   16.2390   26.3990   31.5450 O   0  0  0  0  0  0  0  0  0  0  0  0
   14.1860   26.5170   30.0830 O   0  0  0  0  0  0  0  0  0  0  0  0
   14.2200   24.8330   32.0790 C   0  0  0  0  0  0  0  0  0  0  0  0
   13.7660   23.5460   31.7850 C   0  0  0  0  0  0  0  0  0  0  0  0
   13.0430   22.8270   32.7470 C   0  0  0  0  0  0  0  0  0  0  0  0
   12.7570   23.4120   33.9990 C   0  0  0  0  0  0  0  0  0  0  0  0
   12.0680   22.8220   35.0470 N   0  0  0  0  0  0  0  0  0  0  0  0
   11.9330   23.6810   36.0290 C   0  0  0  0  0  0  0  0  0  0  0  0
   11.2740   23.3580   37.1880 N   0  0  0  0  0  0  0  0  0  0  0  0
   10.7870   24.2330   38.1350 C   0  0  0  0  0  0  0  0  0  0  0  0
   10.8820   25.4600   38.1060 O   0  0  0  0  0  0  0  0  0  0  0  0
   10.1260   23.5780   39.3400 C   0  0  0  0  0  0  0  0  0  0  0  0
   11.0440   22.7160   40.1440 C   0  0  0  0  0  0  0  0  0  0  0  0
   11.0960   22.6270   41.5240 C   0  0  0  0  0  0  0  0  0  0  0  0
   12.2620   21.4630   41.9950 S   0  0  0  0  0  0  0  0  0  0  0  0
   12.6330   21.1940   40.3550 C   0  0  0  0  0  0  0  0  0  0  0  0
   13.6230   20.2680   39.9960 N   0  0  0  0  0  0  0  0  0  0  0  0
   13.9950   19.1690   40.7580 C   0  0  0  0  0  0  0  0  0  0  0  0
   14.9830   18.4670   40.1060 C   0  0  0  0  0  0  0  0  0  0  0  0
   15.2610   19.1570   38.9080 C   0  0  0  0  0  0  0  0  0  0  0  0
   14.4200   20.2470   38.8610 C   0  0  0  0  0  0  0  0  0  0  0  0
   11.9490   21.8980   39.4750 N   0  0  0  0  0  0  0  0  0  0  0  0
   12.6810   25.1930   35.8060 S   0  0  0  0  0  0  0  0  0  0  0  0
   13.1990   24.7150   34.2420 C   0  0  0  0  0  0  0  0  0  0  0  0
   13.9350   25.4490   33.3010 C   0  0  0  0  0  0  0  0  0  0  0  0
   16.2291   23.6757   30.4443 H   0  0  0  0  0  0  0  0  0  0  0  0
   15.0088   24.0651   29.1850 H   0  0  0  0  0  0  0  0  0  0  0  0
   16.5981   24.9023   29.1850 H   0  0  0  0  0  0  0  0  0  0  0  0
   13.9748   23.0979   30.8024 H   0  0  0  0  0  0  0  0  0  0  0  0
   12.6983   21.8061   32.5258 H   0  0  0  0  0  0  0  0  0  0  0  0
   11.1340   22.4000   37.3610 H   0  0  0  0  0  0  0  0  0  0  0  0
    9.7357   24.3716   39.9941 H   0  0  0  0  0  0  0  0  0  0  0  0
    9.3338   22.9218   38.9503 H   0  0  0  0  0  0  0  0  0  0  0  0
   10.4789   23.2173   42.2174 H   0  0  0  0  0  0  0  0  0  0  0  0
   13.5655   18.9001   41.7343 H   0  0  0  0  0  0  0  0  0  0  0  0
   15.4652   17.5416   40.4540 H   0  0  0  0  0  0  0  0  0  0  0  0
   16.0096   18.8771   38.1522 H   0  0  0  0  0  0  0  0  0  0  0  0
   14.3858   20.9872   38.0480 H   0  0  0  0  0  0  0  0  0  0  0  0
   14.2758   26.4724   33.5166 H   0  0  0  0  0  0  0  0  0  0  0  0
  1  2  1  0
  2  3  2  0
  2  4  2  0
  2  5  1  0
  5  6  2  0
  6  7  1  0
  7  8  2  0
  8  9  1  0
  9 10  2  0
 10 11  1  0
 11 12  1  0
 12 13  2  0
 12 14  1  0
 14 15  1  0
 15 16  2  0
 16 17  1  0
 17 18  1  0
 18 19  1  0
 19 20  1  0
 20 21  2  0
 21 22  1  0
 22 23  2  0
 18 24  2  0
 10 25  1  0
 25 26  1  0
 26 27  2  0
 27  5  1  0
 26  8  1  0
 24 15  1  0
 23 19  1  0
  1 28  1  0
  1 29  1  0
  1 30  1  0
  6 31  1  0
  7 32  1  0
 11 33  1  0
 14 34  1  0
 14 35  1  0
 16 36  1  0
 20 37  1  0
 21 38  1  0
 22 39  1  0
 23 40  1  0
 27 41  1  0
M  END
>  <meeko>  (19) 
{"is_sidechain": [false], "free_energy": -7.338, "intermolecular_energy": -8.863, "internal_energy": -0.209}

> <PREPARED_BY>
siam chowdhury
Computational and Medicinal Chemistry
[Dr. Alam's Research Team] www.alamresearch.org
Arkansas State University

$$$$
XCJ_redock_out
     RDKit          3D

 41 44  0  0  0  0  0  0  0  0999 V2000
   12.5850   21.5020   42.5700 C   0  0  0  0  0  0  0  0  0  0  0  0
   11.1140   21.6020   41.5850 S   0  0  0  0  0  0  0  0  0  0  0  0
   10.4180   20.3330   41.6800 O   0  0  0  0  0  0  0  0  0  0  0  0
   10.4380   22.8460   41.9030 O   0  0  0  0  0  0  0  0  0  0  0  0
   11.7430   21.7430   39.9280 C   0  0  0  0  0  0  0  0  0  0  0  0
   11.3510   22.8150   39.1240 C   0  0  0  0  0  0  0  0  0  0  0  0
   11.8480   22.9240   37.8180 C   0  0  0  0  0  0  0  0  0  0  0  0
   12.7260   21.9420   37.3130 C   0  0  0  0  0  0  0  0  0  0  0  0
   13.3060   21.9230   36.0540 N   0  0  0  0  0  0  0  0  0  0  0  0
   14.0120   20.8280   35.9060 C   0  0  0  0  0  0  0  0  0  0  0  0
   14.6820   20.5500   34.7430 N   0  0  0  0  0  0  0  0  0  0  0  0
   14.2990   19.6680   33.7560 C   0  0  0  0  0  0  0  0  0  0  0  0
   13.2910   18.9610   33.7660 O   0  0  0  0  0  0  0  0  0  0  0  0
   15.2680   19.5440   32.5880 C   0  0  0  0  0  0  0  0  0  0  0  0
   15.4250   20.7990   31.7930 C   0  0  0  0  0  0  0  0  0  0  0  0
   16.0230   20.9200   30.5510 C   0  0  0  0  0  0  0  0  0  0  0  0
   15.9160   22.5400   30.0010 S   0  0  0  0  0  0  0  0  0  0  0  0
   15.1250   22.9620   31.4490 C   0  0  0  0  0  0  0  0  0  0  0  0
   14.7270   24.2870   31.6780 N   0  0  0  0  0  0  0  0  0  0  0  0
   14.8770   25.3270   30.7720 C   0  0  0  0  0  0  0  0  0  0  0  0
   14.3700   26.4870   31.3120 C   0  0  0  0  0  0  0  0  0  0  0  0
   13.9070   26.1750   32.6070 C   0  0  0  0  0  0  0  0  0  0  0  0
   14.1320   24.8310   32.8070 C   0  0  0  0  0  0  0  0  0  0  0  0
   14.9240   21.9870   32.3140 N   0  0  0  0  0  0  0  0  0  0  0  0
   14.0990   19.8080   37.2650 S   0  0  0  0  0  0  0  0  0  0  0  0
   13.0670   20.8660   38.1360 C   0  0  0  0  0  0  0  0  0  0  0  0
   12.5930   20.7420   39.4490 C   0  0  0  0  0  0  0  0  0  0  0  0
   12.3144   21.5204   43.6360 H   0  0  0  0  0  0  0  0  0  0  0  0
   13.1157   20.5657   42.3425 H   0  0  0  0  0  0  0  0  0  0  0  0
   13.2375   22.3579   42.3425 H   0  0  0  0  0  0  0  0  0  0  0  0
   10.6544   23.5716   39.5142 H   0  0  0  0  0  0  0  0  0  0  0  0
   11.5534   23.7753   37.1867 H   0  0  0  0  0  0  0  0  0  0  0  0
   15.5270   21.0320   34.5960 H   0  0  0  0  0  0  0  0  0  0  0  0
   16.2539   19.2604   32.9851 H   0  0  0  0  0  0  0  0  0  0  0  0
   14.8514   18.7864   31.9079 H   0  0  0  0  0  0  0  0  0  0  0  0
   16.4978   20.0966   29.9973 H   0  0  0  0  0  0  0  0  0  0  0  0
   15.3317   25.2380   29.7744 H   0  0  0  0  0  0  0  0  0  0  0  0
   14.3329   27.4726   30.8249 H   0  0  0  0  0  0  0  0  0  0  0  0
   13.4513   26.8743   33.3235 H   0  0  0  0  0  0  0  0  0  0  0  0
   13.8788   24.2745   33.7214 H   0  0  0  0  0  0  0  0  0  0  0  0
   12.8795   19.8877   40.0799 H   0  0  0  0  0  0  0  0  0  0  0  0
  1  2  1  0
  2  3  2  0
  2  4  2  0
  2  5  1  0
  5  6  2  0
  6  7  1  0
  7  8  2  0
  8  9  1  0
  9 10  2  0
 10 11  1  0
 11 12  1  0
 12 13  2  0
 12 14  1  0
 14 15  1  0
 15 16  2  0
 16 17  1  0
 17 18  1  0
 18 19  1  0
 19 20  1  0
 20 21  2  0
 21 22  1  0
 22 23  2  0
 18 24  2  0
 10 25  1  0
 25 26  1  0
 26 27  2  0
 27  5  1  0
 26  8  1  0
 24 15  1  0
 23 19  1  0
  1 28  1  0
  1 29  1  0
  1 30  1  0
  6 31  1  0
  7 32  1  0
 11 33  1  0
 14 34  1  0
 14 35  1  0
 16 36  1  0
 20 37  1  0
 21 38  1  0
 22 39  1  0
 23 40  1  0
 27 41  1  0
M  END
>  <meeko>  (20) 
{"is_sidechain": [false], "free_energy": -7.285, "intermolecular_energy": -8.165, "internal_energy": -0.839}

> <PREPARED_BY>
siam chowdhury
Computational and Medicinal Chemistry
[Dr. Alam's Research Team] www.alamresearch.org
Arkansas State University

$$$$
