# siam chowdhury
# Computational and Medicinal Chemistry
# [Dr. Alam's Research Team] www.alamresearch.org
# Arkansas State University
# XCJ crystal pose (7L00 chain A)
@<TRIPOS>MOLECULE
XCJ
 27 30 0 0 0
SMALL
GASTEIGER

@<TRIPOS>ATOM
      1 C          15.0550   14.1950   34.3330 C.3     1  UNL1        0.1816
      2 C          12.4920   15.0880   35.2630 C.ar    1  UNL1        0.1063
      3 C          12.0750   15.0260   33.9430 C.ar    1  UNL1        0.0264
      4 C          10.7260   14.8580   33.7000 C.ar    1  UNL1        0.0511
      5 C           9.8620   14.7600   34.7980 C.ar    1  UNL1        0.0894
      6 C          10.3000   14.8170   36.1380 C.ar    1  UNL1        0.0210
      7 C          11.6450   14.9820   36.3700 C.ar    1  UNL1        0.0199
      8 C           8.3560   14.5890   33.1510 C.ar    1  UNL1        0.1858
      9 C           6.9350   14.1060   31.2120 C.2     1  UNL1        0.2533
     10 C           5.5300   13.7780   30.7680 C.3     1  UNL1        0.1334
     11 C           4.8920   14.9670   30.1010 C.ar    1  UNL1        0.0769
     12 C           3.8210   15.7820   30.5630 C.ar    1  UNL1        0.0535
     13 C           4.6830   16.4910   28.3870 C.ar    1  UNL1        0.1791
     14 C           5.1700   16.3640   26.0120 C.ar    1  UNL1        0.0820
     15 C           5.3770   17.2630   24.9890 C.ar    1  UNL1        0.0206
     16 C           5.2760   18.5220   25.5140 C.ar    1  UNL1        0.0206
     17 C           5.0080   18.4090   26.8590 C.ar    1  UNL1        0.0820
     18 N           8.4830   14.5900   34.4990 N.ar    1  UNL1       -0.2225
     19 N           7.0760   14.3590   32.6140 N.am    1  UNL1       -0.1540
     20 N           4.9550   17.0930   27.1190 N.ar    1  UNL1       -0.2838
     21 N           5.3870   15.3940   28.8170 N.ar    1  UNL1       -0.2254
     22 O           7.8530   14.1580   30.4640 O.2     1  UNL1       -0.2725
     23 O          14.6530   16.6890   35.3160 O.2     1  UNL1       -0.1686
     24 O          14.6170   14.9780   36.8950 O.2     1  UNL1       -0.1686
     25 S          14.2440   15.2830   35.5180 S.O2    1  UNL1        0.0105
     26 S           9.8160   14.7530   32.3150 S.2     1  UNL1       -0.0497
     27 S           3.5280   16.9230   29.4630 S.2     1  UNL1       -0.0483
@<TRIPOS>BOND
     1     1    25    1
     2     2     3   ar
     3     2    25    1
     4     2     7   ar
     5     3     4   ar
     6     4    26   ar
     7     4     5   ar
     8     5    18   ar
     9     5     6   ar
    10     6     7   ar
    11     8    26   ar
    12     8    19    1
    13     8    18   ar
    14     9    22    2
    15     9    10    1
    16     9    19   am
    17    10    11    1
    18    11    21   ar
    19    11    12   ar
    20    12    27   ar
    21    13    20    1
    22    13    21   ar
    23    13    27   ar
    24    14    15   ar
    25    14    20   ar
    26    15    16   ar
    27    16    17   ar
    28    17    20   ar
    29    23    25    2
    30    24    25    2
