# siam chowdhury
# Computational and Medicinal Chemistry
# [Dr. Alam's Research Team] www.alamresearch.org
# Arkansas State University
# XCJ redocked best pose (Vina pose 1)
@<TRIPOS>MOLECULE
XCJ_redock_out
 41 44 0 0 0
SMALL
GASTEIGER

@<TRIPOS>ATOM
      1 C          14.5010   15.7440   36.9520 C.3     1  UNL1        0.0596
      2 S          14.2710   15.6250   35.1970 S.O2    1  UNL1       -0.0058
      3 O          14.5500   16.9240   34.6150 O.2     1  UNL1       -0.1696
      4 O          14.9590   14.4370   34.7290 O.2     1  UNL1       -0.1696
      5 C          12.5250   15.3310   35.0350 C.ar    1  UNL1        0.0890
      6 C          11.7530   15.0860   36.1710 C.ar    1  UNL1       -0.0348
      7 C          10.3760   14.8550   36.0410 C.ar    1  UNL1       -0.0333
      8 C           9.7790   14.8500   34.7620 C.ar    1  UNL1        0.0804
      9 N           8.4370   14.6500   34.4790 N.ar    1  UNL1       -0.2246
     10 C           8.2530   14.6460   33.1810 C.ar    1  UNL1        0.1655
     11 N           7.0130   14.4530   32.6260 N.am    1  UNL1       -0.2644
     12 C           6.7040   14.4130   31.2840 C.2     1  UNL1        0.2245
     13 O           7.4930   14.5650   30.3520 O.2     1  UNL1       -0.2750
     14 C           5.2280   14.2140   30.9670 C.3     1  UNL1        0.0672
     15 C           4.6230   15.3230   30.1690 C.ar    1  UNL1        0.0595
     16 C           3.5010   16.0620   30.5000 C.ar    1  UNL1        0.0009
     17 S           3.2190   17.2660   29.3130 S.2     1  UNL1       -0.0574
     18 C           4.5680   16.7000   28.4410 C.ar    1  UNL1        0.1774
     19 N           4.9300   17.3030   27.2270 N.ar    1  UNL1       -0.3024
     20 C           4.9810   16.6520   26.0030 C.ar    1  UNL1        0.0116
     21 C           5.3600   17.5410   25.0220 C.ar    1  UNL1       -0.0438
     22 C           5.5780   18.7840   25.6500 C.ar    1  UNL1       -0.0438
     23 C           5.3070   18.6170   26.9900 C.ar    1  UNL1        0.0116
     24 N           5.2230   15.6850   28.9670 N.ar    1  UNL1       -0.2268
     25 S           9.6290   14.9600   32.2310 S.2     1  UNL1       -0.0520
     26 C          10.5920   15.0640   33.6460 C.ar    1  UNL1        0.0426
     27 C          11.9680   15.3110   33.7530 C.ar    1  UNL1       -0.0210
     28 H          13.6373   15.2971   37.4661 H       1  UNL1        0.0468
     29 H          15.4169   15.2066   37.2390 H       1  UNL1        0.0468
     30 H          14.5914   16.8020   37.2390 H       1  UNL1        0.0468
     31 H          12.2230   15.0741   37.1655 H       1  UNL1        0.0637
     32 H           9.7611   14.6777   36.9357 H       1  UNL1        0.0640
     33 H           6.2650   14.3290   33.2530 H       1  UNL1        0.1567
     34 H           5.1195   13.2791   30.3977 H       1  UNL1        0.0423
     35 H           4.6964   14.1878   31.9297 H       1  UNL1        0.0423
     36 H           2.8808   15.9005   31.3940 H       1  UNL1        0.0712
     37 H           4.7534   15.5881   25.8408 H       1  UNL1        0.0813
     38 H           5.4716   17.3222   23.9498 H       1  UNL1        0.0633
     39 H           5.9038   19.7139   25.1610 H       1  UNL1        0.0633
     40 H           5.3785   19.4044   27.7548 H       1  UNL1        0.0813
     41 H          12.5871   15.4829   32.8601 H       1  UNL1        0.0648
@<TRIPOS>BOND
     1     1     2    1
     2     2     3    2
     3     2     4    2
     4     2     5    1
     5     5     6   ar
     6     6     7   ar
     7     7     8   ar
     8     8     9   ar
     9     9    10   ar
    10    10    11    1
    11    11    12   am
    12    12    13    2
    13    12    14    1
    14    14    15    1
    15    15    16   ar
    16    16    17   ar
    17    17    18   ar
    18    18    19    1
    19    19    20   ar
    20    20    21   ar
    21    21    22   ar
    22    22    23   ar
    23    18    24   ar
    24    10    25   ar
    25    25    26   ar
    26    26    27   ar
    27    27     5   ar
    28    26     8   ar
    29    24    15   ar
    30    23    19   ar
    31     1    28    1
    32     1    29    1
    33     1    30    1
    34     6    31    1
    35     7    32    1
    36    11    33    1
    37    14    34    1
    38    14    35    1
    39    16    36    1
    40    20    37    1
    41    21    38    1
    42    22    39    1
    43    23    40    1
    44    27    41    1
