XCJ
 OpenBabel09252602013D

 41 44  0  0  0  0  0  0  0  0999 V2000
    1.2972   -0.5289    0.6735 C   0  0  0  0  0  0  0  0  0  0  0  0
    3.2088    1.4896    0.8092 C   0  0  0  0  0  0  0  0  0  0  0  0
    4.0375    1.3527    1.9271 C   0  0  0  0  0  0  0  0  0  0  0  0
    4.3712    2.5162    2.6342 C   0  0  0  0  0  0  0  0  0  0  0  0
    3.9035    3.7799    2.2643 C   0  0  0  0  0  0  0  0  0  0  0  0
    3.0876    3.8870    1.1177 C   0  0  0  0  0  0  0  0  0  0  0  0
    2.7508    2.7390    0.3873 C   0  0  0  0  0  0  0  0  0  0  0  0
    5.1122    4.3597    4.0182 C   0  0  0  0  0  0  0  0  0  0  0  0
    6.7025    4.8756    5.8230 C   0  0  0  0  0  0  0  0  0  0  0  0
    7.0886    5.9873    6.7900 C   0  0  0  0  0  0  0  0  0  0  0  0
    6.9772    7.3611    6.2140 C   0  0  0  0  0  0  0  0  0  0  0  0
    8.0140    8.2482    5.9864 C   0  0  0  0  0  0  0  0  0  0  0  0
    5.8403    9.0363    5.3270 C   0  0  0  0  0  0  0  0  0  0  0  0
    3.4189    9.4121    4.9880 C   0  0  0  0  0  0  0  0  0  0  0  0
    2.6127   10.3745    4.4225 C   0  0  0  0  0  0  0  0  0  0  0  0
    3.4609   11.3681    3.8939 C   0  0  0  0  0  0  0  0  0  0  0  0
    4.7561   10.9884    4.1699 C   0  0  0  0  0  0  0  0  0  0  0  0
    4.3074    4.8184    3.0900 N   0  0  0  0  0  0  0  0  0  0  0  0
    5.6705    5.1826    4.9628 N   0  0  0  0  0  0  0  0  0  0  0  0
    4.7496    9.7813    4.8531 N   0  0  0  0  0  0  0  0  0  0  0  0
    5.7197    7.8311    5.8474 N   0  0  0  0  0  0  0  0  0  0  0  0
    7.2857    3.7947    5.8998 O   0  0  0  0  0  0  0  0  0  0  0  0
    3.8215   -0.9526    0.1210 O   0  0  0  0  0  0  0  0  0  0  0  0
    2.4495    0.4520   -1.4636 O   0  0  0  0  0  0  0  0  0  0  0  0
    2.7826    0.0322   -0.1161 S   0  0  0  0  0  0  0  0  0  0  0  0
    5.3689    2.6782    4.0204 S   0  0  0  0  0  0  0  0  0  0  0  0
    7.4159    9.6783    5.2551 S   0  0  0  0  0  0  0  0  0  0  0  0
    1.5209   -0.8440    1.6713 H   0  0  0  0  0  0  0  0  0  0  0  0
    0.8891   -1.3506    0.1230 H   0  0  0  0  0  0  0  0  0  0  0  0
    0.5854    0.2695    0.7028 H   0  0  0  0  0  0  0  0  0  0  0  0
    4.3906    0.4286    2.2210 H   0  0  0  0  0  0  0  0  0  0  0  0
    2.7389    4.8106    0.8171 H   0  0  0  0  0  0  0  0  0  0  0  0
    2.1662    2.8171   -0.4596 H   0  0  0  0  0  0  0  0  0  0  0  0
    8.1025    5.8314    7.0940 H   0  0  0  0  0  0  0  0  0  0  0  0
    6.4003    5.9383    7.6078 H   0  0  0  0  0  0  0  0  0  0  0  0
    9.0035    8.0742    6.2226 H   0  0  0  0  0  0  0  0  0  0  0  0
    3.0845    8.5482    5.4427 H   0  0  0  0  0  0  0  0  0  0  0  0
    1.5811   10.3693    4.3916 H   0  0  0  0  0  0  0  0  0  0  0  0
    3.1666   12.2212    3.3932 H   0  0  0  0  0  0  0  0  0  0  0  0
    5.6011   11.5203    3.9087 H   0  0  0  0  0  0  0  0  0  0  0  0
    5.2937    6.0894    5.0339 H   0  0  0  0  0  0  0  0  0  0  0  0
  1 25  1  0  0  0  0
  1 28  1  0  0  0  0
  1 29  1  0  0  0  0
  1 30  1  0  0  0  0
  2  3  1  0  0  0  0
  2 25  1  0  0  0  0
  2  7  2  0  0  0  0
  3  4  2  0  0  0  0
  3 31  1  0  0  0  0
  4 26  1  0  0  0  0
  4  5  1  0  0  0  0
  5 18  1  0  0  0  0
  5  6  2  0  0  0  0
  6  7  1  0  0  0  0
  6 32  1  0  0  0  0
  7 33  1  0  0  0  0
  8 26  1  0  0  0  0
  8 19  1  0  0  0  0
  8 18  2  0  0  0  0
  9 22  2  0  0  0  0
  9 10  1  0  0  0  0
  9 19  1  0  0  0  0
 10 11  1  0  0  0  0
 10 34  1  0  0  0  0
 10 35  1  0  0  0  0
 11 21  1  0  0  0  0
 11 12  2  0  0  0  0
 12 27  1  0  0  0  0
 12 36  1  0  0  0  0
 13 20  1  0  0  0  0
 13 21  2  0  0  0  0
 13 27  1  0  0  0  0
 14 15  2  0  0  0  0
 14 20  1  0  0  0  0
 14 37  1  0  0  0  0
 15 16  1  0  0  0  0
 15 38  1  0  0  0  0
 16 17  2  0  0  0  0
 16 39  1  0  0  0  0
 17 20  1  0  0  0  0
 17 40  1  0  0  0  0
 19 41  1  0  0  0  0
 23 25  2  0  0  0  0
 24 25  2  0  0  0  0
M  END
>  <model_server_result.job_id>
_gklJR9ZRL0CS6p-zxwj7g

>  <model_server_result.datetime_utc>
2026-09-25 07:01:24

>  <model_server_result.server_version>
0.9.13

>  <model_server_result.query_name>
ligand

>  <model_server_result.source_id>
pdb-bcif

>  <model_server_result.entry_id>
7l00

>  <model_server_params.name>
atom_site

>  <model_server_params.value>
{"auth_asym_id":"A","auth_seq_id":402}

>  <model_server_stats.io_time_ms>
9

>  <model_server_stats.parse_time_ms>
7

>  <model_server_stats.create_model_time_ms>
11

>  <model_server_stats.query_time_ms>
181

>  <model_server_stats.encode_time_ms>
0

>  <model_server_stats.element_count>
27

>  <Energy>
49.6868

> <PREPARED_BY>
siam chowdhury
Computational and Medicinal Chemistry
[Dr. Alam's Research Team] www.alamresearch.org
Arkansas State University

$$$$
