
 OpenBabel09252602113D

 46 49  0  0  0  0  0  0  0  0999 V2000
    2.4498    1.1794    1.1313 O   0  5  0  0  0  0  0  0  0  0  0  0
    1.4195   -0.4674   -0.0215 O   0  0  0  0  0  0  0  0  0  0  0  0
    2.2337    0.4372    0.0243 C   0  0  0  0  0  0  0  0  0  0  0  0
   10.5360   -2.8166  -11.0022 Cl  0  0  0  0  0  0  0  0  0  0  0  0
    7.6176    0.5860  -10.7084 C   0  0  0  0  0  0  0  0  0  0  0  0
    8.0082    0.1020  -11.9584 C   0  0  0  0  0  0  0  0  0  0  0  0
    8.8977   -0.9606  -12.0622 C   0  0  0  0  0  0  0  0  0  0  0  0
    9.4114   -1.5178  -10.8979 C   0  0  0  0  0  0  0  0  0  0  0  0
    9.0262   -1.0371   -9.6432 C   0  0  0  0  0  0  0  0  0  0  0  0
    8.0852   -0.0055   -9.5275 C   0  0  0  0  0  0  0  0  0  0  0  0
    7.7594    0.4744   -8.2521 N   0  0  0  0  0  0  0  0  0  0  0  0
    6.4450    1.0853   -8.0607 C   0  0  0  0  0  0  0  0  0  0  0  0
    8.9614    7.2681   -8.3829 F   0  0  0  0  0  0  0  0  0  0  0  0
    8.1680    3.8298   -7.5489 C   0  0  0  0  0  0  0  0  0  0  0  0
    8.7973    4.9320   -8.1338 C   0  0  0  0  0  0  0  0  0  0  0  0
    8.3531    6.2106   -7.8301 C   0  0  0  0  0  0  0  0  0  0  0  0
    7.2925    6.4052   -6.9549 C   0  0  0  0  0  0  0  0  0  0  0  0
    6.6538    5.2993   -6.3789 C   0  0  0  0  0  0  0  0  0  0  0  0
    7.0768    3.9943   -6.6776 C   0  0  0  0  0  0  0  0  0  0  0  0
    5.8633    2.8857   -4.8514 N   0  0  0  0  0  0  0  0  0  0  0  0
    6.3985    2.8303   -6.0847 C   0  0  0  0  0  0  0  0  0  0  0  0
    6.1687    1.5496   -6.6715 C   0  0  0  0  0  0  0  0  0  0  0  0
    5.5740    0.8089   -5.6741 C   0  0  0  0  0  0  0  0  0  0  0  0
    5.3589    1.6491   -4.6103 N   0  0  0  0  0  0  0  0  0  0  0  0
    3.5666    2.0894   -1.3646 C   0  0  0  0  0  0  0  0  0  0  0  0
    4.3455    2.3647   -2.4984 C   0  0  0  0  0  0  0  0  0  0  0  0
    4.6489    1.3451   -3.4131 C   0  0  0  0  0  0  0  0  0  0  0  0
    4.1985    0.0402   -3.1599 C   0  0  0  0  0  0  0  0  0  0  0  0
    3.4340   -0.2343   -2.0224 C   0  0  0  0  0  0  0  0  0  0  0  0
    3.1110    0.7867   -1.1227 C   0  0  0  0  0  0  0  0  0  0  0  0
    7.3820    0.8359  -13.3843 Cl  0  0  0  0  0  0  0  0  0  0  0  0
    6.9748    1.3915  -10.6534 H   0  0  0  0  0  0  0  0  0  0  0  0
    9.1714   -1.3288  -12.9866 H   0  0  0  0  0  0  0  0  0  0  0  0
    9.4401   -1.4471   -8.7914 H   0  0  0  0  0  0  0  0  0  0  0  0
    8.3976    0.4023   -7.5060 H   0  0  0  0  0  0  0  0  0  0  0  0
    5.7007    0.3634   -8.3248 H   0  0  0  0  0  0  0  0  0  0  0  0
    6.4250    1.9577   -8.6798 H   0  0  0  0  0  0  0  0  0  0  0  0
    8.5099    2.8793   -7.7601 H   0  0  0  0  0  0  0  0  0  0  0  0
    9.5855    4.7960   -8.7860 H   0  0  0  0  0  0  0  0  0  0  0  0
    6.9758    7.3613   -6.7296 H   0  0  0  0  0  0  0  0  0  0  0  0
    5.8654    5.4452   -5.7293 H   0  0  0  0  0  0  0  0  0  0  0  0
    5.3342   -0.1938   -5.7185 H   0  0  0  0  0  0  0  0  0  0  0  0
    3.3284    2.8483   -0.7071 H   0  0  0  0  0  0  0  0  0  0  0  0
    4.6969    3.3215   -2.6603 H   0  0  0  0  0  0  0  0  0  0  0  0
    4.4330   -0.7204   -3.8168 H   0  0  0  0  0  0  0  0  0  0  0  0
    3.1057   -1.1965   -1.8453 H   0  0  0  0  0  0  0  0  0  0  0  0
  3  1  1  0  0  0  0
  3  2  2  0  0  0  0
  5  6  2  0  0  0  0
  5 32  1  0  0  0  0
  6  7  1  0  0  0  0
  6 31  1  0  0  0  0
  7  8  2  0  0  0  0
  7 33  1  0  0  0  0
  8  4  1  0  0  0  0
  8  9  1  0  0  0  0
  9 10  2  0  0  0  0
  9 34  1  0  0  0  0
 10  5  1  0  0  0  0
 11 10  1  0  0  0  0
 11 35  1  0  0  0  0
 12 11  1  0  0  0  0
 12 36  1  0  0  0  0
 12 37  1  0  0  0  0
 14 15  2  0  0  0  0
 14 38  1  0  0  0  0
 15 16  1  0  0  0  0
 15 39  1  0  0  0  0
 16 13  1  0  0  0  0
 16 17  2  0  0  0  0
 17 18  1  0  0  0  0
 17 40  1  0  0  0  0
 18 19  2  0  0  0  0
 18 41  1  0  0  0  0
 19 14  1  0  0  0  0
 20 24  1  0  0  0  0
 21 19  1  0  0  0  0
 21 20  2  0  0  0  0
 22 12  1  0  0  0  0
 22 21  1  0  0  0  0
 23 22  2  0  0  0  0
 23 24  1  0  0  0  0
 23 42  1  0  0  0  0
 25 26  2  0  0  0  0
 25 43  1  0  0  0  0
 26 27  1  0  0  0  0
 26 44  1  0  0  0  0
 27 24  1  0  0  0  0
 27 28  2  0  0  0  0
 28 29  1  0  0  0  0
 28 45  1  0  0  0  0
 29 30  2  0  0  0  0
 29 46  1  0  0  0  0
 30  3  1  0  0  0  0
 30 25  1  0  0  0  0
M  CHG  1   1  -1
M  END
>  <Energy>
59.6769

> <PREPARED_BY>
siam chowdhury
Computational and Medicinal Chemistry
[Dr. Alam's Research Team] www.alamresearch.org
Arkansas State University

$$$$
