# siam chowdhury
# Computational and Medicinal Chemistry
# [Dr. Alam's Research Team] www.alamresearch.org
# Arkansas State University
# 20sa23 all docked poses (7L00 FabK)
@<TRIPOS>MOLECULE
20sa23_out
 46 49 0 0 0
SMALL
GASTEIGER

@<TRIPOS>ATOM
      1 O          16.1860   13.5540   35.5730 O.co2   1  UNL1       -0.5446
      2 C          15.4140   14.4580   35.3110 C.2     1  UNL1        0.0717
      3 O          14.4770   14.3680   34.3420 O.co2   1  UNL1       -0.5446
      4 C          15.3900   15.7390   36.0630 C.ar    1  UNL1       -0.0026
      5 C          15.7690   15.8410   37.4070 C.ar    1  UNL1       -0.0509
      6 C          15.6690   17.0690   38.0770 C.ar    1  UNL1       -0.0357
      7 C          15.1610   18.1970   37.4140 C.ar    1  UNL1        0.0654
      8 N          14.9720   19.4170   38.1250 N.ar    1  UNL1       -0.2390
      9 C          15.7970   20.5140   38.1080 C.ar    1  UNL1        0.0365
     10 C          15.1650   21.5160   38.8100 C.ar    1  UNL1        0.0153
     11 C          15.6250   22.9300   38.9230 C.3     1  UNL1        0.0379
     12 N          15.7640   23.6310   37.6480 N.pl3   1  UNL1       -0.3395
     13 C          14.6010   24.0950   37.0200 C.ar    1  UNL1        0.0301
     14 C          14.4980   23.9980   35.6260 C.ar    1  UNL1       -0.0224
     15 C          13.3730   24.4850   34.9540 C.ar    1  UNL1        0.0441
     16 CL         13.2600   24.3080   33.2450 Cl      1  UNL1       -0.0834
     17 C          12.3450   25.1090   35.6480 C.ar    1  UNL1       -0.0249
     18 C          12.4640   25.2620   37.0240 C.ar    1  UNL1        0.0441
     19 CL         11.2220   26.0640   37.9070 Cl      1  UNL1       -0.0834
     20 C          13.5840   24.7770   37.7010 C.ar    1  UNL1       -0.0224
     21 C          13.9890   20.9050   39.3370 C.ar    1  UNL1        0.0978
     22 C          12.9780   21.4960   40.2290 C.ar    1  UNL1        0.0026
     23 C          11.8950   22.2280   39.7110 C.ar    1  UNL1       -0.0498
     24 C          10.9200   22.7680   40.5530 C.ar    1  UNL1       -0.0258
     25 C          11.0350   22.6000   41.9250 C.ar    1  UNL1        0.1234
     26 F          10.1050   23.1240   42.7330 F       1  UNL1       -0.2055
     27 C          12.1050   21.9020   42.4670 C.ar    1  UNL1       -0.0258
     28 C          13.0760   21.3490   41.6220 C.ar    1  UNL1       -0.0498
     29 N          13.8650   19.6460   38.8760 N.ar    1  UNL1       -0.1661
     30 C          14.7930   18.0910   36.0640 C.ar    1  UNL1       -0.0357
     31 C          14.9060   16.8680   35.3950 C.ar    1  UNL1       -0.0509
     32 H          16.1463   14.9552   37.9390 H       1  UNL1        0.0625
     33 H          15.9899   17.1484   39.1261 H       1  UNL1        0.0639
     34 H          16.7820   20.5804   37.6228 H       1  UNL1        0.0834
     35 H          14.8969   23.4790   39.5382 H       1  UNL1        0.0512
     36 H          16.6298   22.8950   39.3693 H       1  UNL1        0.0512
     37 H          16.6490   23.7750   37.2410 H       1  UNL1        0.1464
     38 H          15.3132   23.5324   35.0527 H       1  UNL1        0.0651
     39 H          11.4531   25.4754   35.1185 H       1  UNL1        0.0647
     40 H          13.6697   24.9327   38.7866 H       1  UNL1        0.0651
     41 H          11.8142   22.3780   38.6243 H       1  UNL1        0.0625
     42 H          10.0682   23.3218   40.1315 H       1  UNL1        0.0646
     43 H          12.1905   21.7832   43.5572 H       1  UNL1        0.0646
     44 H          13.9226   20.7948   42.0535 H       1  UNL1        0.0625
     45 H          14.4137   18.9743   35.5292 H       1  UNL1        0.0639
     46 H          14.6125   16.7939   34.3375 H       1  UNL1        0.0625
@<TRIPOS>UNITY_ATOM_ATTR
3 1
charge -1
@<TRIPOS>BOND
     1     1     2   ar
     2     2     3   ar
     3     2     4    1
     4     4     5   ar
     5     5     6   ar
     6     6     7   ar
     7     7     8    1
     8     8     9   ar
     9     9    10   ar
    10    10    11    1
    11    11    12    1
    12    12    13    1
    13    13    14   ar
    14    14    15   ar
    15    15    16    1
    16    15    17   ar
    17    17    18   ar
    18    18    19    1
    19    18    20   ar
    20    10    21   ar
    21    21    22    1
    22    22    23   ar
    23    23    24   ar
    24    24    25   ar
    25    25    26    1
    26    25    27   ar
    27    27    28   ar
    28    21    29   ar
    29     7    30   ar
    30    30    31   ar
    31    31     4   ar
    32    29     8   ar
    33    20    13   ar
    34    28    22   ar
    35     5    32    1
    36     6    33    1
    37     9    34    1
    38    11    35    1
    39    11    36    1
    40    12    37    1
    41    14    38    1
    42    17    39    1
    43    20    40    1
    44    23    41    1
    45    24    42    1
    46    27    43    1
    47    28    44    1
    48    30    45    1
    49    31    46    1
@<TRIPOS>MOLECULE
20sa23_out
 46 49 0 0 0
SMALL
GASTEIGER

@<TRIPOS>ATOM
      1 O          16.1390   13.4910   35.5910 O.co2   1  UNL1       -0.5446
      2 C          15.3880   14.3940   35.2700 C.2     1  UNL1        0.0717
      3 O          14.4800   14.2790   34.2780 O.co2   1  UNL1       -0.5446
      4 C          15.3600   15.7040   35.9710 C.ar    1  UNL1       -0.0026
      5 C          16.1160   15.9720   37.1190 C.ar    1  UNL1       -0.0509
      6 C          16.0010   17.2100   37.7670 C.ar    1  UNL1       -0.0357
      7 C          15.1070   18.1790   37.2870 C.ar    1  UNL1        0.0654
      8 N          14.9240   19.3970   38.0030 N.ar    1  UNL1       -0.2390
      9 C          15.7380   20.5010   37.9670 C.ar    1  UNL1        0.0365
     10 C          15.1140   21.4980   38.6850 C.ar    1  UNL1        0.0153
     11 C          15.5630   22.9160   38.7860 C.3     1  UNL1        0.0379
     12 N          15.8200   23.5690   37.5040 N.pl3   1  UNL1       -0.3395
     13 C          14.7370   24.1480   36.8290 C.ar    1  UNL1        0.0301
     14 C          13.6230   24.5650   37.5690 C.ar    1  UNL1       -0.0224
     15 C          12.5040   25.1100   36.9330 C.ar    1  UNL1        0.0441
     16 CL         11.1700   25.6540   37.8760 Cl      1  UNL1       -0.0834
     17 C          12.4540   25.2190   35.5490 C.ar    1  UNL1       -0.0249
     18 C          13.5310   24.7550   34.8040 C.ar    1  UNL1        0.0441
     19 CL         13.4840   24.8440   33.0850 Cl      1  UNL1       -0.0834
     20 C          14.6520   24.2110   35.4330 C.ar    1  UNL1       -0.0224
     21 C          13.9570   20.8750   39.2400 C.ar    1  UNL1        0.0978
     22 C          12.9620   21.4560   40.1570 C.ar    1  UNL1        0.0026
     23 C          11.8350   22.1370   39.6640 C.ar    1  UNL1       -0.0498
     24 C          10.8760   22.6660   40.5310 C.ar    1  UNL1       -0.0258
     25 C          11.0520   22.5410   41.9020 C.ar    1  UNL1        0.1234
     26 F          10.1380   23.0560   42.7330 F       1  UNL1       -0.2055
     27 C          12.1670   21.8940   42.4180 C.ar    1  UNL1       -0.0258
     28 C          13.1220   21.3520   41.5480 C.ar    1  UNL1       -0.0498
     29 N          13.8340   19.6150   38.7820 N.ar    1  UNL1       -0.1661
     30 C          14.3600   17.9100   36.1300 C.ar    1  UNL1       -0.0357
     31 C          14.4860   16.6790   35.4790 C.ar    1  UNL1       -0.0509
     32 H          16.8025   15.2085   37.5137 H       1  UNL1        0.0625
     33 H          16.6141   17.4224   38.6552 H       1  UNL1        0.0639
     34 H          16.7104   20.5764   37.4583 H       1  UNL1        0.0834
     35 H          14.7818   23.4861   39.3101 H       1  UNL1        0.0512
     36 H          16.5224   22.9001   39.3239 H       1  UNL1        0.0512
     37 H          16.7280   23.6030   37.1250 H       1  UNL1        0.1464
     38 H          13.6290   24.4623   38.6642 H       1  UNL1        0.0651
     39 H          11.5789   25.6639   35.0527 H       1  UNL1        0.0647
     40 H          15.4818   23.8257   34.8222 H       1  UNL1        0.0651
     41 H          11.7064   22.2551   38.5779 H       1  UNL1        0.0625
     42 H           9.9884   23.1776   40.1303 H       1  UNL1        0.0646
     43 H          12.3000   21.8073   43.5065 H       1  UNL1        0.0646
     44 H          14.0051   20.8404   41.9584 H       1  UNL1        0.0625
     45 H          13.6721   18.6712   35.7333 H       1  UNL1        0.0639
     46 H          13.8941   16.4760   34.5743 H       1  UNL1        0.0625
@<TRIPOS>UNITY_ATOM_ATTR
3 1
charge -1
@<TRIPOS>BOND
     1     1     2   ar
     2     2     3   ar
     3     2     4    1
     4     4     5   ar
     5     5     6   ar
     6     6     7   ar
     7     7     8    1
     8     8     9   ar
     9     9    10   ar
    10    10    11    1
    11    11    12    1
    12    12    13    1
    13    13    14   ar
    14    14    15   ar
    15    15    16    1
    16    15    17   ar
    17    17    18   ar
    18    18    19    1
    19    18    20   ar
    20    10    21   ar
    21    21    22    1
    22    22    23   ar
    23    23    24   ar
    24    24    25   ar
    25    25    26    1
    26    25    27   ar
    27    27    28   ar
    28    21    29   ar
    29     7    30   ar
    30    30    31   ar
    31    31     4   ar
    32    29     8   ar
    33    20    13   ar
    34    28    22   ar
    35     5    32    1
    36     6    33    1
    37     9    34    1
    38    11    35    1
    39    11    36    1
    40    12    37    1
    41    14    38    1
    42    17    39    1
    43    20    40    1
    44    23    41    1
    45    24    42    1
    46    27    43    1
    47    28    44    1
    48    30    45    1
    49    31    46    1
@<TRIPOS>MOLECULE
20sa23_out
 46 49 0 0 0
SMALL
GASTEIGER

@<TRIPOS>ATOM
      1 O           5.5860   14.1440   32.4360 O.co2   1  UNL1       -0.5446
      2 C           6.5670   14.4060   31.7640 C.2     1  UNL1        0.0717
      3 O           6.5200   14.5710   30.4240 O.co2   1  UNL1       -0.5446
      4 C           7.9140   14.6180   32.3550 C.ar    1  UNL1       -0.0026
      5 C           8.1530   14.5980   33.7350 C.ar    1  UNL1       -0.0509
      6 C           9.4360   14.8630   34.2330 C.ar    1  UNL1       -0.0357
      7 C          10.4840   15.1790   33.3540 C.ar    1  UNL1        0.0654
      8 N          11.7620   15.5400   33.8700 N.ar    1  UNL1       -0.2390
      9 C          12.5790   14.7670   34.6570 C.ar    1  UNL1        0.0365
     10 C          13.7720   15.4400   34.7990 C.ar    1  UNL1        0.0153
     11 C          15.0060   14.9080   35.4470 C.3     1  UNL1        0.0379
     12 N          14.9380   14.8120   36.9040 N.pl3   1  UNL1       -0.3395
     13 C          15.5380   15.8260   37.6610 C.ar    1  UNL1        0.0301
     14 C          14.7210   16.6930   38.3990 C.ar    1  UNL1       -0.0224
     15 C          15.2740   17.7450   39.1370 C.ar    1  UNL1        0.0441
     16 CL         14.2450   18.7630   40.0680 Cl      1  UNL1       -0.0834
     17 C          16.6430   17.9780   39.1270 C.ar    1  UNL1       -0.0249
     18 C          17.4550   17.1590   38.3510 C.ar    1  UNL1        0.0441
     19 CL         19.1510   17.4460   38.2910 Cl      1  UNL1       -0.0834
     20 C          16.9090   16.1060   37.6130 C.ar    1  UNL1       -0.0224
     21 C          13.5600   16.6970   34.1570 C.ar    1  UNL1        0.0978
     22 C          14.4810   17.8410   34.0700 C.ar    1  UNL1        0.0026
     23 C          14.8570   18.5560   35.2200 C.ar    1  UNL1       -0.0498
     24 C          15.7520   19.6270   35.1440 C.ar    1  UNL1       -0.0258
     25 C          16.2570   20.0070   33.9080 C.ar    1  UNL1        0.1234
     26 F          17.1070   21.0390   33.8330 F       1  UNL1       -0.2055
     27 C          15.8840   19.3350   32.7520 C.ar    1  UNL1       -0.0258
     28 C          14.9980   18.2520   32.8310 C.ar    1  UNL1       -0.0498
     29 N          12.3520   16.7230   33.5620 N.ar    1  UNL1       -0.1661
     30 C          10.2420   15.1870   31.9720 C.ar    1  UNL1       -0.0357
     31 C           8.9640   14.9090   31.4780 C.ar    1  UNL1       -0.0509
     32 H           7.3308   14.3735   34.4304 H       1  UNL1        0.0625
     33 H           9.6224   14.8232   35.3164 H       1  UNL1        0.0639
     34 H          12.3270   13.7895   35.0940 H       1  UNL1        0.0834
     35 H          15.1970   13.9017   35.0459 H       1  UNL1        0.0512
     36 H          15.8095   15.6241   35.2200 H       1  UNL1        0.0512
     37 H          14.4840   14.0560   37.3410 H       1  UNL1        0.1464
     38 H          13.6311   16.5445   38.3980 H       1  UNL1        0.0651
     39 H          17.0767   18.7953   39.7220 H       1  UNL1        0.0647
     40 H          17.5664   15.4873   36.9845 H       1  UNL1        0.0651
     41 H          14.4400   18.2680   36.1963 H       1  UNL1        0.0625
     42 H          16.0535   20.1639   36.0555 H       1  UNL1        0.0646
     43 H          16.2827   19.6516   31.7769 H       1  UNL1        0.0646
     44 H          14.7051   17.7193   31.9143 H       1  UNL1        0.0625
     45 H          11.0616   15.4130   31.2740 H       1  UNL1        0.0639
     46 H           8.7832   14.9192   30.3930 H       1  UNL1        0.0625
@<TRIPOS>UNITY_ATOM_ATTR
3 1
charge -1
@<TRIPOS>BOND
     1     1     2   ar
     2     2     3   ar
     3     2     4    1
     4     4     5   ar
     5     5     6   ar
     6     6     7   ar
     7     7     8    1
     8     8     9   ar
     9     9    10   ar
    10    10    11    1
    11    11    12    1
    12    12    13    1
    13    13    14   ar
    14    14    15   ar
    15    15    16    1
    16    15    17   ar
    17    17    18   ar
    18    18    19    1
    19    18    20   ar
    20    10    21   ar
    21    21    22    1
    22    22    23   ar
    23    23    24   ar
    24    24    25   ar
    25    25    26    1
    26    25    27   ar
    27    27    28   ar
    28    21    29   ar
    29     7    30   ar
    30    30    31   ar
    31    31     4   ar
    32    29     8   ar
    33    20    13   ar
    34    28    22   ar
    35     5    32    1
    36     6    33    1
    37     9    34    1
    38    11    35    1
    39    11    36    1
    40    12    37    1
    41    14    38    1
    42    17    39    1
    43    20    40    1
    44    23    41    1
    45    24    42    1
    46    27    43    1
    47    28    44    1
    48    30    45    1
    49    31    46    1
@<TRIPOS>MOLECULE
20sa23_out
 46 49 0 0 0
SMALL
GASTEIGER

@<TRIPOS>ATOM
      1 O           8.1790   14.7420   33.5040 O.co2   1  UNL1       -0.5446
      2 C           9.2400   14.7790   32.9080 C.2     1  UNL1        0.0717
      3 O           9.3630   14.4570   31.6020 O.co2   1  UNL1       -0.5446
      4 C          10.5050   15.2280   33.5450 C.ar    1  UNL1       -0.0026
      5 C          10.9380   14.7630   34.7930 C.ar    1  UNL1       -0.0509
      6 C          12.1140   15.2690   35.3660 C.ar    1  UNL1       -0.0357
      7 C          12.8480   16.2680   34.7070 C.ar    1  UNL1        0.0654
      8 N          13.9870   16.8460   35.3360 N.ar    1  UNL1       -0.2390
      9 C          14.4570   18.1250   35.1700 C.ar    1  UNL1        0.0365
     10 C          15.4810   18.3100   36.0730 C.ar    1  UNL1        0.0153
     11 C          16.1820   19.5970   36.3500 C.3     1  UNL1        0.0379
     12 N          16.0120   20.1050   37.7100 N.pl3   1  UNL1       -0.3395
     13 C          14.7610   20.6210   38.0700 C.ar    1  UNL1        0.0301
     14 C          14.1950   20.2370   39.2930 C.ar    1  UNL1       -0.0224
     15 C          12.9310   20.6950   39.6740 C.ar    1  UNL1        0.0441
     16 CL         12.2860   20.2390   41.2040 Cl      1  UNL1       -0.0834
     17 C          12.1880   21.5140   38.8340 C.ar    1  UNL1       -0.0249
     18 C          12.7160   21.8540   37.5940 C.ar    1  UNL1        0.0441
     19 CL         11.8030   22.8390   36.5160 Cl      1  UNL1       -0.0834
     20 C          13.9790   21.4010   37.2080 C.ar    1  UNL1       -0.0224
     21 C          15.6600   17.0340   36.6850 C.ar    1  UNL1        0.0978
     22 C          16.6710   16.6350   37.6770 C.ar    1  UNL1        0.0026
     23 C          16.3940   16.6870   39.0540 C.ar    1  UNL1       -0.0498
     24 C          17.3420   16.2840   39.9980 C.ar    1  UNL1       -0.0258
     25 C          18.5880   15.8480   39.5690 C.ar    1  UNL1        0.1234
     26 F          19.5000   15.4700   40.4730 F       1  UNL1       -0.2055
     27 C          18.8980   15.8080   38.2170 C.ar    1  UNL1       -0.0258
     28 C          17.9420   16.2000   37.2700 C.ar    1  UNL1       -0.0498
     29 N          14.7190   16.1710   36.2590 N.ar    1  UNL1       -0.1661
     30 C          12.4150   16.7230   33.4520 C.ar    1  UNL1       -0.0357
     31 C          11.2500   16.2050   32.8770 C.ar    1  UNL1       -0.0509
     32 H          10.3538   13.9982   35.3258 H       1  UNL1        0.0625
     33 H          12.4623   14.8818   36.3349 H       1  UNL1        0.0639
     34 H          14.0843   18.8666   34.4481 H       1  UNL1        0.0834
     35 H          17.2571   19.4467   36.1723 H       1  UNL1        0.0512
     36 H          15.7331   20.3455   35.6805 H       1  UNL1        0.0512
     37 H          16.7550   20.0850   38.3550 H       1  UNL1        0.1464
     38 H          14.7533   19.5659   39.9623 H       1  UNL1        0.0651
     39 H          11.2005   21.8865   39.1440 H       1  UNL1        0.0647
     40 H          14.3661   21.6605   36.2116 H       1  UNL1        0.0651
     41 H          15.4136   17.0514   39.3945 H       1  UNL1        0.0625
     42 H          17.1031   16.3120   41.0714 H       1  UNL1        0.0646
     43 H          19.8919   15.4694   37.8892 H       1  UNL1        0.0646
     44 H          18.1898   16.1665   36.1988 H       1  UNL1        0.0625
     45 H          12.9945   17.4905   32.9181 H       1  UNL1        0.0639
     46 H          10.9177   16.5683   31.8933 H       1  UNL1        0.0625
@<TRIPOS>UNITY_ATOM_ATTR
3 1
charge -1
@<TRIPOS>BOND
     1     1     2   ar
     2     2     3   ar
     3     2     4    1
     4     4     5   ar
     5     5     6   ar
     6     6     7   ar
     7     7     8    1
     8     8     9   ar
     9     9    10   ar
    10    10    11    1
    11    11    12    1
    12    12    13    1
    13    13    14   ar
    14    14    15   ar
    15    15    16    1
    16    15    17   ar
    17    17    18   ar
    18    18    19    1
    19    18    20   ar
    20    10    21   ar
    21    21    22    1
    22    22    23   ar
    23    23    24   ar
    24    24    25   ar
    25    25    26    1
    26    25    27   ar
    27    27    28   ar
    28    21    29   ar
    29     7    30   ar
    30    30    31   ar
    31    31     4   ar
    32    29     8   ar
    33    20    13   ar
    34    28    22   ar
    35     5    32    1
    36     6    33    1
    37     9    34    1
    38    11    35    1
    39    11    36    1
    40    12    37    1
    41    14    38    1
    42    17    39    1
    43    20    40    1
    44    23    41    1
    45    24    42    1
    46    27    43    1
    47    28    44    1
    48    30    45    1
    49    31    46    1
@<TRIPOS>MOLECULE
20sa23_out
 46 49 0 0 0
SMALL
GASTEIGER

@<TRIPOS>ATOM
      1 O          16.3160   13.4560   35.6050 O.co2   1  UNL1       -0.5446
      2 C          15.4700   14.1990   35.1420 C.2     1  UNL1        0.0717
      3 O          14.7270   13.8840   34.0590 O.co2   1  UNL1       -0.5446
      4 C          15.1330   15.5120   35.7490 C.ar    1  UNL1       -0.0026
      5 C          14.5970   16.5770   35.0140 C.ar    1  UNL1       -0.0509
      6 C          14.3540   17.8110   35.6340 C.ar    1  UNL1       -0.0357
      7 C          14.6740   17.9980   36.9870 C.ar    1  UNL1        0.0654
      8 N          14.5150   19.2790   37.5880 N.ar    1  UNL1       -0.2390
      9 C          15.5130   20.1030   38.0450 C.ar    1  UNL1        0.0365
     10 C          14.9300   21.2970   38.4070 C.ar    1  UNL1        0.0153
     11 C          15.6530   22.5350   38.8160 C.3     1  UNL1        0.0379
     12 N          16.2300   23.3000   37.7130 N.pl3   1  UNL1       -0.3395
     13 C          15.3930   23.6570   36.6480 C.ar    1  UNL1        0.0301
     14 C          15.4500   22.9130   35.4620 C.ar    1  UNL1       -0.0224
     15 C          14.6610   23.2590   34.3610 C.ar    1  UNL1        0.0441
     16 CL         14.7230   22.2970   32.9350 Cl      1  UNL1       -0.0834
     17 C          13.8290   24.3710   34.4020 C.ar    1  UNL1       -0.0249
     18 C          13.8100   25.1480   35.5540 C.ar    1  UNL1        0.0441
     19 CL         12.8150   26.5520   35.6220 Cl      1  UNL1       -0.0834
     20 C          14.5940   24.8070   36.6580 C.ar    1  UNL1       -0.0224
     21 C          13.5290   21.0790   38.2520 C.ar    1  UNL1        0.0978
     22 C          12.4240   21.9990   38.5680 C.ar    1  UNL1        0.0026
     23 C          11.8560   22.0330   39.8530 C.ar    1  UNL1       -0.0498
     24 C          10.8250   22.9240   40.1630 C.ar    1  UNL1       -0.0258
     25 C          10.3360   23.7710   39.1780 C.ar    1  UNL1        0.1234
     26 F           9.3420   24.6180   39.4720 F       1  UNL1       -0.2055
     27 C          10.8620   23.7430   37.8940 C.ar    1  UNL1       -0.0258
     28 C          11.9050   22.8590   37.5870 C.ar    1  UNL1       -0.0498
     29 N          13.2970   19.8670   37.7130 N.ar    1  UNL1       -0.1661
     30 C          15.2010   16.9240   37.7220 C.ar    1  UNL1       -0.0357
     31 C          15.4290   15.6910   37.1030 C.ar    1  UNL1       -0.0509
     32 H          14.3659   16.4449   33.9467 H       1  UNL1        0.0625
     33 H          13.9106   18.6359   35.0570 H       1  UNL1        0.0639
     34 H          16.5827   19.8551   38.1102 H       1  UNL1        0.0834
     35 H          14.9438   23.1851   39.3493 H       1  UNL1        0.0512
     36 H          16.4970   22.2085   39.4414 H       1  UNL1        0.0512
     37 H          17.1810   23.5570   37.7170 H       1  UNL1        0.1464
     38 H          16.1238   22.0460   35.3964 H       1  UNL1        0.0651
     39 H          13.1978   24.6312   33.5396 H       1  UNL1        0.0647
     40 H          14.5838   25.4516   37.5493 H       1  UNL1        0.0651
     41 H          12.2291   21.3469   40.6276 H       1  UNL1        0.0625
     42 H          10.4045   22.9539   41.1790 H       1  UNL1        0.0646
     43 H          10.4611   24.4131   37.1192 H       1  UNL1        0.0646
     44 H          12.3207   22.8387   36.5688 H       1  UNL1        0.0625
     45 H          15.4354   17.0530   38.7890 H       1  UNL1        0.0639
     46 H          15.8444   14.8559   37.6861 H       1  UNL1        0.0625
@<TRIPOS>UNITY_ATOM_ATTR
3 1
charge -1
@<TRIPOS>BOND
     1     1     2   ar
     2     2     3   ar
     3     2     4    1
     4     4     5   ar
     5     5     6   ar
     6     6     7   ar
     7     7     8    1
     8     8     9   ar
     9     9    10   ar
    10    10    11    1
    11    11    12    1
    12    12    13    1
    13    13    14   ar
    14    14    15   ar
    15    15    16    1
    16    15    17   ar
    17    17    18   ar
    18    18    19    1
    19    18    20   ar
    20    10    21   ar
    21    21    22    1
    22    22    23   ar
    23    23    24   ar
    24    24    25   ar
    25    25    26    1
    26    25    27   ar
    27    27    28   ar
    28    21    29   ar
    29     7    30   ar
    30    30    31   ar
    31    31     4   ar
    32    29     8   ar
    33    20    13   ar
    34    28    22   ar
    35     5    32    1
    36     6    33    1
    37     9    34    1
    38    11    35    1
    39    11    36    1
    40    12    37    1
    41    14    38    1
    42    17    39    1
    43    20    40    1
    44    23    41    1
    45    24    42    1
    46    27    43    1
    47    28    44    1
    48    30    45    1
    49    31    46    1
@<TRIPOS>MOLECULE
20sa23_out
 46 49 0 0 0
SMALL
GASTEIGER

@<TRIPOS>ATOM
      1 O          10.4490   22.8590   42.6030 O.co2   1  UNL1       -0.5446
      2 C          10.4330   21.8910   41.8640 C.2     1  UNL1        0.0717
      3 O           9.6720   20.8000   42.0970 O.co2   1  UNL1       -0.5446
      4 C          11.2130   21.8290   40.6020 C.ar    1  UNL1       -0.0026
      5 C          11.1900   22.8470   39.6400 C.ar    1  UNL1       -0.0509
      6 C          11.9050   22.7030   38.4420 C.ar    1  UNL1       -0.0357
      7 C          12.6250   21.5260   38.1850 C.ar    1  UNL1        0.0654
      8 N          13.2700   21.3450   36.9290 N.ar    1  UNL1       -0.2390
      9 C          14.1370   20.3370   36.5880 C.ar    1  UNL1        0.0365
     10 C          14.4030   20.4590   35.2420 C.ar    1  UNL1        0.0153
     11 C          15.1760   19.4910   34.4110 C.3     1  UNL1        0.0379
     12 N          14.3660   18.6850   33.4990 N.pl3   1  UNL1       -0.3395
     13 C          13.7980   17.5030   33.9910 C.ar    1  UNL1        0.0301
     14 C          14.4770   16.7880   34.9870 C.ar    1  UNL1       -0.0224
     15 C          13.9680   15.5820   35.4780 C.ar    1  UNL1        0.0441
     16 CL         14.8050   14.7540   36.7330 Cl      1  UNL1       -0.0834
     17 C          12.7950   15.0440   34.9650 C.ar    1  UNL1       -0.0249
     18 C          12.1450   15.7160   33.9360 C.ar    1  UNL1        0.0441
     19 CL         10.7080   15.0550   33.2570 Cl      1  UNL1       -0.0834
     20 C          12.6480   16.9210   33.4430 C.ar    1  UNL1       -0.0224
     21 C          13.7440   21.6610   34.8480 C.ar    1  UNL1        0.0978
     22 C          13.7540   22.3150   33.5300 C.ar    1  UNL1        0.0026
     23 C          14.4970   23.4880   33.3090 C.ar    1  UNL1       -0.0498
     24 C          14.5300   24.0960   32.0520 C.ar    1  UNL1       -0.0258
     25 C          13.7950   23.5480   31.0100 C.ar    1  UNL1        0.1234
     26 F          13.8180   24.1350   29.8070 F       1  UNL1       -0.2055
     27 C          13.0330   22.4040   31.2040 C.ar    1  UNL1       -0.0258
     28 C          13.0120   21.7870   32.4620 C.ar    1  UNL1       -0.0498
     29 N          13.0270   22.1620   35.8720 N.ar    1  UNL1       -0.1661
     30 C          12.6540   20.5140   39.1570 C.ar    1  UNL1       -0.0357
     31 C          11.9510   20.6670   40.3560 C.ar    1  UNL1       -0.0509
     32 H          10.6091   23.7626   39.8248 H       1  UNL1        0.0625
     33 H          11.9014   23.5158   37.7009 H       1  UNL1        0.0639
     34 H          14.5446   19.5721   37.2653 H       1  UNL1        0.0834
     35 H          15.9038   20.0583   33.8123 H       1  UNL1        0.0512
     36 H          15.6473   18.7868   35.1124 H       1  UNL1        0.0512
     37 H          14.2210   18.9650   32.5660 H       1  UNL1        0.1464
     38 H          15.4230   17.1810   35.3878 H       1  UNL1        0.0651
     39 H          12.3878   14.1038   35.3653 H       1  UNL1        0.0647
     40 H          12.1326   17.4219   32.6102 H       1  UNL1        0.0651
     41 H          15.0621   23.9346   34.1404 H       1  UNL1        0.0625
     42 H          15.1333   25.0013   31.8893 H       1  UNL1        0.0646
     43 H          12.4477   21.9833   30.3731 H       1  UNL1        0.0646
     44 H          12.4082   20.8802   32.6139 H       1  UNL1        0.0625
     45 H          13.2324   19.5963   38.9748 H       1  UNL1        0.0639
     46 H          11.9787   19.8676   41.1111 H       1  UNL1        0.0625
@<TRIPOS>UNITY_ATOM_ATTR
3 1
charge -1
@<TRIPOS>BOND
     1     1     2   ar
     2     2     3   ar
     3     2     4    1
     4     4     5   ar
     5     5     6   ar
     6     6     7   ar
     7     7     8    1
     8     8     9   ar
     9     9    10   ar
    10    10    11    1
    11    11    12    1
    12    12    13    1
    13    13    14   ar
    14    14    15   ar
    15    15    16    1
    16    15    17   ar
    17    17    18   ar
    18    18    19    1
    19    18    20   ar
    20    10    21   ar
    21    21    22    1
    22    22    23   ar
    23    23    24   ar
    24    24    25   ar
    25    25    26    1
    26    25    27   ar
    27    27    28   ar
    28    21    29   ar
    29     7    30   ar
    30    30    31   ar
    31    31     4   ar
    32    29     8   ar
    33    20    13   ar
    34    28    22   ar
    35     5    32    1
    36     6    33    1
    37     9    34    1
    38    11    35    1
    39    11    36    1
    40    12    37    1
    41    14    38    1
    42    17    39    1
    43    20    40    1
    44    23    41    1
    45    24    42    1
    46    27    43    1
    47    28    44    1
    48    30    45    1
    49    31    46    1
@<TRIPOS>MOLECULE
20sa23_out
 46 49 0 0 0
SMALL
GASTEIGER

@<TRIPOS>ATOM
      1 O          10.4670   22.7820   42.7320 O.co2   1  UNL1       -0.5446
      2 C          10.4420   21.8250   41.9790 C.2     1  UNL1        0.0717
      3 O           9.6690   20.7390   42.1930 O.co2   1  UNL1       -0.5446
      4 C          11.2270   21.7730   40.7180 C.ar    1  UNL1       -0.0026
      5 C          11.2110   22.8020   39.7670 C.ar    1  UNL1       -0.0509
      6 C          11.9290   22.6680   38.5700 C.ar    1  UNL1       -0.0357
      7 C          12.6450   21.4900   38.3030 C.ar    1  UNL1        0.0654
      8 N          13.2940   21.3200   37.0470 N.ar    1  UNL1       -0.2390
      9 C          14.1650   20.3180   36.7010 C.ar    1  UNL1        0.0365
     10 C          14.4340   20.4500   35.3560 C.ar    1  UNL1        0.0153
     11 C          15.2120   19.4900   34.5210 C.3     1  UNL1        0.0379
     12 N          14.4080   18.6950   33.5940 N.pl3   1  UNL1       -0.3395
     13 C          13.9490   17.4440   34.0250 C.ar    1  UNL1        0.0301
     14 C          12.7510   16.9430   33.4960 C.ar    1  UNL1       -0.0224
     15 C          12.2350   15.7180   33.9280 C.ar    1  UNL1        0.0441
     16 CL         10.7850   15.1110   33.2250 Cl      1  UNL1       -0.0834
     17 C          12.8760   14.9830   34.9160 C.ar    1  UNL1       -0.0249
     18 C          14.0340   15.5000   35.4880 C.ar    1  UNL1        0.0441
     19 CL         14.8320   14.6290   36.7400 Cl      1  UNL1       -0.0834
     20 C          14.5550   16.7220   35.0600 C.ar    1  UNL1       -0.0224
     21 C          13.7700   21.6520   34.9690 C.ar    1  UNL1        0.0978
     22 C          13.7800   22.3140   33.6550 C.ar    1  UNL1        0.0026
     23 C          13.0700   21.7760   32.5680 C.ar    1  UNL1       -0.0498
     24 C          13.0570   22.4160   31.3260 C.ar    1  UNL1       -0.0258
     25 C          13.7760   23.5900   31.1570 C.ar    1  UNL1        0.1234
     26 F          13.7710   24.2000   29.9650 F       1  UNL1       -0.2055
     27 C          14.5050   24.1330   32.2060 C.ar    1  UNL1       -0.0258
     28 C          14.5080   23.4980   33.4540 C.ar    1  UNL1       -0.0498
     29 N          13.0490   22.1420   35.9950 N.ar    1  UNL1       -0.1661
     30 C          12.6670   20.4680   39.2640 C.ar    1  UNL1       -0.0357
     31 C          11.9600   20.6110   40.4620 C.ar    1  UNL1       -0.0509
     32 H          10.6333   23.7179   39.9601 H       1  UNL1        0.0625
     33 H          11.9313   23.4887   37.8375 H       1  UNL1        0.0639
     34 H          14.5737   19.5499   37.3740 H       1  UNL1        0.0834
     35 H          15.9454   20.0626   33.9342 H       1  UNL1        0.0512
     36 H          15.6768   18.7777   35.2185 H       1  UNL1        0.0512
     37 H          14.1940   19.0290   32.6930 H       1  UNL1        0.1464
     38 H          12.2108   17.5210   32.7318 H       1  UNL1        0.0651
     39 H          12.4761   14.0109   35.2402 H       1  UNL1        0.0647
     40 H          15.4570   17.1246   35.5441 H       1  UNL1        0.0651
     41 H          12.5151   20.8351   32.6972 H       1  UNL1        0.0625
     42 H          12.4816   21.9925   30.4896 H       1  UNL1        0.0646
     43 H          15.0788   25.0596   32.0573 H       1  UNL1        0.0646
     44 H          15.0857   23.9304   34.2843 H       1  UNL1        0.0625
     45 H          13.2429   19.5502   39.0742 H       1  UNL1        0.0639
     46 H          11.9810   19.8031   41.2082 H       1  UNL1        0.0625
@<TRIPOS>UNITY_ATOM_ATTR
3 1
charge -1
@<TRIPOS>BOND
     1     1     2   ar
     2     2     3   ar
     3     2     4    1
     4     4     5   ar
     5     5     6   ar
     6     6     7   ar
     7     7     8    1
     8     8     9   ar
     9     9    10   ar
    10    10    11    1
    11    11    12    1
    12    12    13    1
    13    13    14   ar
    14    14    15   ar
    15    15    16    1
    16    15    17   ar
    17    17    18   ar
    18    18    19    1
    19    18    20   ar
    20    10    21   ar
    21    21    22    1
    22    22    23   ar
    23    23    24   ar
    24    24    25   ar
    25    25    26    1
    26    25    27   ar
    27    27    28   ar
    28    21    29   ar
    29     7    30   ar
    30    30    31   ar
    31    31     4   ar
    32    29     8   ar
    33    20    13   ar
    34    28    22   ar
    35     5    32    1
    36     6    33    1
    37     9    34    1
    38    11    35    1
    39    11    36    1
    40    12    37    1
    41    14    38    1
    42    17    39    1
    43    20    40    1
    44    23    41    1
    45    24    42    1
    46    27    43    1
    47    28    44    1
    48    30    45    1
    49    31    46    1
@<TRIPOS>MOLECULE
20sa23_out
 46 49 0 0 0
SMALL
GASTEIGER

@<TRIPOS>ATOM
      1 O           6.8200   14.3970   32.8040 O.co2   1  UNL1       -0.5446
      2 C           7.7920   14.6250   32.1070 C.2     1  UNL1        0.0717
      3 O           7.7630   14.5590   30.7580 O.co2   1  UNL1       -0.5446
      4 C           9.1020   15.0480   32.6660 C.ar    1  UNL1       -0.0026
      5 C           9.5350   14.6890   33.9490 C.ar    1  UNL1       -0.0509
      6 C          10.7580   15.1670   34.4400 C.ar    1  UNL1       -0.0357
      7 C          11.5420   16.0340   33.6630 C.ar    1  UNL1        0.0654
      8 N          12.7360   16.5930   34.2040 N.ar    1  UNL1       -0.2390
      9 C          13.5410   17.5360   33.6150 C.ar    1  UNL1        0.0365
     10 C          14.4950   17.8990   34.5400 C.ar    1  UNL1        0.0153
     11 C          15.4860   19.0030   34.3880 C.3     1  UNL1        0.0379
     12 N          14.9350   20.3470   34.5470 N.pl3   1  UNL1       -0.3395
     13 C          14.8810   20.8900   35.8370 C.ar    1  UNL1        0.0301
     14 C          16.0800   21.2090   36.4890 C.ar    1  UNL1       -0.0224
     15 C          16.0740   21.7150   37.7920 C.ar    1  UNL1        0.0441
     16 CL         17.5630   22.1380   38.5460 Cl      1  UNL1       -0.0834
     17 C          14.8830   21.8800   38.4870 C.ar    1  UNL1       -0.0249
     18 C          13.6930   21.5120   37.8690 C.ar    1  UNL1        0.0441
     19 CL         12.2040   21.6720   38.7180 Cl      1  UNL1       -0.0834
     20 C          13.6910   21.0070   36.5680 C.ar    1  UNL1       -0.0224
     21 C          14.2750   17.0300   35.6500 C.ar    1  UNL1        0.0978
     22 C          15.0540   16.9280   36.8950 C.ar    1  UNL1        0.0026
     23 C          15.9600   15.8730   37.0970 C.ar    1  UNL1       -0.0498
     24 C          16.7200   15.7890   38.2670 C.ar    1  UNL1       -0.0258
     25 C          16.5580   16.7480   39.2560 C.ar    1  UNL1        0.1234
     26 F          17.2790   16.6630   40.3810 F       1  UNL1       -0.2055
     27 C          15.6530   17.7880   39.0940 C.ar    1  UNL1       -0.0258
     28 C          14.9010   17.8800   37.9150 C.ar    1  UNL1       -0.0498
     29 N          13.1780   16.2750   35.4470 N.ar    1  UNL1       -0.1661
     30 C          11.1090   16.3820   32.3750 C.ar    1  UNL1       -0.0357
     31 C           9.8950   15.8910   31.8820 C.ar    1  UNL1       -0.0509
     32 H           8.9135   14.0300   34.5731 H       1  UNL1        0.0625
     33 H          11.1046   14.8614   35.4382 H       1  UNL1        0.0639
     34 H          13.4424   17.9294   32.5925 H       1  UNL1        0.0834
     35 H          16.2722   18.8637   35.1446 H       1  UNL1        0.0512
     36 H          15.8614   18.9423   33.3558 H       1  UNL1        0.0512
     37 H          14.6110   20.8580   33.7700 H       1  UNL1        0.1464
     38 H          17.0376   21.0593   35.9688 H       1  UNL1        0.0651
     39 H          14.8811   22.2936   39.5063 H       1  UNL1        0.0647
     40 H          12.7408   20.6960   36.1093 H       1  UNL1        0.0651
     41 H          16.0729   15.1008   36.3218 H       1  UNL1        0.0625
     42 H          17.4407   14.9691   38.4024 H       1  UNL1        0.0646
     43 H          15.5264   18.5378   39.8888 H       1  UNL1        0.0646
     44 H          14.1848   18.7052   37.7879 H       1  UNL1        0.0625
     45 H          11.7265   17.0437   31.7498 H       1  UNL1        0.0639
     46 H           9.5626   16.1701   30.8713 H       1  UNL1        0.0625
@<TRIPOS>UNITY_ATOM_ATTR
3 1
charge -1
@<TRIPOS>BOND
     1     1     2   ar
     2     2     3   ar
     3     2     4    1
     4     4     5   ar
     5     5     6   ar
     6     6     7   ar
     7     7     8    1
     8     8     9   ar
     9     9    10   ar
    10    10    11    1
    11    11    12    1
    12    12    13    1
    13    13    14   ar
    14    14    15   ar
    15    15    16    1
    16    15    17   ar
    17    17    18   ar
    18    18    19    1
    19    18    20   ar
    20    10    21   ar
    21    21    22    1
    22    22    23   ar
    23    23    24   ar
    24    24    25   ar
    25    25    26    1
    26    25    27   ar
    27    27    28   ar
    28    21    29   ar
    29     7    30   ar
    30    30    31   ar
    31    31     4   ar
    32    29     8   ar
    33    20    13   ar
    34    28    22   ar
    35     5    32    1
    36     6    33    1
    37     9    34    1
    38    11    35    1
    39    11    36    1
    40    12    37    1
    41    14    38    1
    42    17    39    1
    43    20    40    1
    44    23    41    1
    45    24    42    1
    46    27    43    1
    47    28    44    1
    48    30    45    1
    49    31    46    1
@<TRIPOS>MOLECULE
20sa23_out
 46 49 0 0 0
SMALL
GASTEIGER

@<TRIPOS>ATOM
      1 O          11.5290   20.9690   42.7320 O.co2   1  UNL1       -0.5446
      2 C          10.7240   21.3390   41.8960 C.2     1  UNL1        0.0717
      3 O           9.3890   21.2930   42.0900 O.co2   1  UNL1       -0.5446
      4 C          11.1290   21.9250   40.5930 C.ar    1  UNL1       -0.0026
      5 C          10.6110   23.1310   40.1040 C.ar    1  UNL1       -0.0509
      6 C          10.9910   23.6020   38.8390 C.ar    1  UNL1       -0.0357
      7 C          11.8700   22.8530   38.0410 C.ar    1  UNL1        0.0654
      8 N          12.1790   23.2880   36.7200 N.ar    1  UNL1       -0.2390
      9 C          12.0150   24.5520   36.2110 C.ar    1  UNL1        0.0365
     10 C          12.5760   24.5660   34.9530 C.ar    1  UNL1        0.0153
     11 C          12.7620   25.7690   34.0920 C.3     1  UNL1        0.0379
     12 N          14.1320   26.2760   34.0370 N.pl3   1  UNL1       -0.3395
     13 C          14.9120   25.9490   32.9200 C.ar    1  UNL1        0.0301
     14 C          14.2710   25.6110   31.7210 C.ar    1  UNL1       -0.0224
     15 C          15.0100   25.2390   30.5940 C.ar    1  UNL1        0.0441
     16 CL         14.1910   24.8740   29.1240 Cl      1  UNL1       -0.0834
     17 C          16.3950   25.1590   30.6450 C.ar    1  UNL1       -0.0249
     18 C          17.0360   25.4360   31.8470 C.ar    1  UNL1        0.0441
     19 CL         18.7500   25.3110   31.9500 Cl      1  UNL1       -0.0834
     20 C          16.3050   25.8100   32.9760 C.ar    1  UNL1       -0.0224
     21 C          12.9630   23.2150   34.7120 C.ar    1  UNL1        0.0978
     22 C          13.5490   22.6400   33.4900 C.ar    1  UNL1        0.0026
     23 C          12.7450   22.3220   32.3820 C.ar    1  UNL1       -0.0498
     24 C          13.3020   21.8010   31.2120 C.ar    1  UNL1       -0.0258
     25 C          14.6690   21.5690   31.1520 C.ar    1  UNL1        0.1234
     26 F          15.2020   21.0610   30.0340 F       1  UNL1       -0.2055
     27 C          15.4840   21.8510   32.2390 C.ar    1  UNL1       -0.0258
     28 C          14.9270   22.3860   33.4080 C.ar    1  UNL1       -0.0498
     29 N          12.7550   22.4620   35.8090 N.ar    1  UNL1       -0.1661
     30 C          12.3950   21.6510   38.5400 C.ar    1  UNL1       -0.0357
     31 C          12.0240   21.1920   39.8070 C.ar    1  UNL1       -0.0509
     32 H           9.9033   23.7109   40.7147 H       1  UNL1        0.0625
     33 H          10.5990   24.5616   38.4708 H       1  UNL1        0.0639
     34 H          11.5255   25.3984   36.7150 H       1  UNL1        0.0834
     35 H          12.4516   25.5094   33.0691 H       1  UNL1        0.0512
     36 H          12.1532   26.5682   34.5398 H       1  UNL1        0.0512
     37 H          14.4970   26.8330   34.7630 H       1  UNL1        0.1464
     38 H          13.1727   25.6386   31.6656 H       1  UNL1        0.0651
     39 H          16.9739   24.8818   29.7517 H       1  UNL1        0.0647
     40 H          16.8306   25.9984   33.9238 H       1  UNL1        0.0651
     41 H          11.6587   22.4862   32.4372 H       1  UNL1        0.0625
     42 H          12.6627   21.5765   30.3455 H       1  UNL1        0.0646
     43 H          16.5649   21.6550   32.1831 H       1  UNL1        0.0646
     44 H          15.5749   22.6088   34.2686 H       1  UNL1        0.0625
     45 H          13.1015   21.0676   37.9314 H       1  UNL1        0.0639
     46 H          12.4389   20.2475   40.1887 H       1  UNL1        0.0625
@<TRIPOS>UNITY_ATOM_ATTR
3 1
charge -1
@<TRIPOS>BOND
     1     1     2   ar
     2     2     3   ar
     3     2     4    1
     4     4     5   ar
     5     5     6   ar
     6     6     7   ar
     7     7     8    1
     8     8     9   ar
     9     9    10   ar
    10    10    11    1
    11    11    12    1
    12    12    13    1
    13    13    14   ar
    14    14    15   ar
    15    15    16    1
    16    15    17   ar
    17    17    18   ar
    18    18    19    1
    19    18    20   ar
    20    10    21   ar
    21    21    22    1
    22    22    23   ar
    23    23    24   ar
    24    24    25   ar
    25    25    26    1
    26    25    27   ar
    27    27    28   ar
    28    21    29   ar
    29     7    30   ar
    30    30    31   ar
    31    31     4   ar
    32    29     8   ar
    33    20    13   ar
    34    28    22   ar
    35     5    32    1
    36     6    33    1
    37     9    34    1
    38    11    35    1
    39    11    36    1
    40    12    37    1
    41    14    38    1
    42    17    39    1
    43    20    40    1
    44    23    41    1
    45    24    42    1
    46    27    43    1
    47    28    44    1
    48    30    45    1
    49    31    46    1
@<TRIPOS>MOLECULE
20sa23_out
 46 49 0 0 0
SMALL
GASTEIGER

@<TRIPOS>ATOM
      1 O          10.4480   22.7630   42.5500 O.co2   1  UNL1       -0.5446
      2 C          10.5630   21.8460   41.7570 C.2     1  UNL1        0.0717
      3 O          10.1220   20.5950   42.0090 O.co2   1  UNL1       -0.5446
      4 C          11.1600   22.0190   40.4070 C.ar    1  UNL1       -0.0026
      5 C          11.0270   23.1970   39.6600 C.ar    1  UNL1       -0.0509
      6 C          11.5650   23.2780   38.3680 C.ar    1  UNL1       -0.0357
      7 C          12.2150   22.1700   37.8030 C.ar    1  UNL1        0.0654
      8 N          12.6760   22.2240   36.4560 N.ar    1  UNL1       -0.2390
      9 C          12.2980   23.1270   35.4940 C.ar    1  UNL1        0.0365
     10 C          13.0940   22.9120   34.3900 C.ar    1  UNL1        0.0153
     11 C          13.1370   23.7590   33.1640 C.3     1  UNL1        0.0379
     12 N          14.2830   24.6630   33.0840 N.pl3   1  UNL1       -0.3395
     13 C          15.4280   24.2190   32.4120 C.ar    1  UNL1        0.0301
     14 C          15.2770   23.4730   31.2350 C.ar    1  UNL1       -0.0224
     15 C          16.3920   22.9760   30.5540 C.ar    1  UNL1        0.0441
     16 CL         16.1720   22.1010   29.0870 Cl      1  UNL1       -0.0834
     17 C          17.6750   23.1780   31.0450 C.ar    1  UNL1       -0.0249
     18 C          17.8310   23.8670   32.2430 C.ar    1  UNL1        0.0441
     19 CL         19.4070   24.1020   32.8950 Cl      1  UNL1       -0.0834
     20 C          16.7220   24.3680   32.9270 C.ar    1  UNL1       -0.0224
     21 C          13.8680   21.7600   34.7190 C.ar    1  UNL1        0.0978
     22 C          14.8350   21.0420   33.8740 C.ar    1  UNL1        0.0026
     23 C          16.2050   21.0350   34.1880 C.ar    1  UNL1       -0.0498
     24 C          17.1230   20.3330   33.4020 C.ar    1  UNL1       -0.0258
     25 C          16.6770   19.6510   32.2790 C.ar    1  UNL1        0.1234
     26 F          17.5570   18.9850   31.5200 F       1  UNL1       -0.2055
     27 C          15.3340   19.6590   31.9310 C.ar    1  UNL1       -0.0258
     28 C          14.4120   20.3530   32.7260 C.ar    1  UNL1       -0.0498
     29 N          13.6330   21.3820   35.9900 N.ar    1  UNL1       -0.1661
     30 C          12.3550   20.9960   38.5600 C.ar    1  UNL1       -0.0357
     31 C          11.8290   20.9240   39.8530 C.ar    1  UNL1       -0.0509
     32 H          10.4986   24.0612   40.0889 H       1  UNL1        0.0625
     33 H          11.4774   24.2130   37.7953 H       1  UNL1        0.0639
     34 H          11.5050   23.8836   35.5872 H       1  UNL1        0.0834
     35 H          13.1644   23.0932   32.2888 H       1  UNL1        0.0512
     36 H          12.2411   24.3964   33.1961 H       1  UNL1        0.0512
     37 H          14.2500   25.5600   33.4910 H       1  UNL1        0.1464
     38 H          14.2685   23.2762   30.8423 H       1  UNL1        0.0651
     39 H          18.5509   22.8004   30.4971 H       1  UNL1        0.0647
     40 H          16.8666   24.8880   33.8855 H       1  UNL1        0.0651
     41 H          16.5608   21.5916   35.0675 H       1  UNL1        0.0625
     42 H          18.1895   20.3213   33.6712 H       1  UNL1        0.0646
     43 H          14.9938   19.1219   31.0333 H       1  UNL1        0.0646
     44 H          13.3476   20.3580   32.4483 H       1  UNL1        0.0625
     45 H          12.8809   20.1290   38.1337 H       1  UNL1        0.0639
     46 H          11.9423   19.9996   40.4383 H       1  UNL1        0.0625
@<TRIPOS>UNITY_ATOM_ATTR
3 1
charge -1
@<TRIPOS>BOND
     1     1     2   ar
     2     2     3   ar
     3     2     4    1
     4     4     5   ar
     5     5     6   ar
     6     6     7   ar
     7     7     8    1
     8     8     9   ar
     9     9    10   ar
    10    10    11    1
    11    11    12    1
    12    12    13    1
    13    13    14   ar
    14    14    15   ar
    15    15    16    1
    16    15    17   ar
    17    17    18   ar
    18    18    19    1
    19    18    20   ar
    20    10    21   ar
    21    21    22    1
    22    22    23   ar
    23    23    24   ar
    24    24    25   ar
    25    25    26    1
    26    25    27   ar
    27    27    28   ar
    28    21    29   ar
    29     7    30   ar
    30    30    31   ar
    31    31     4   ar
    32    29     8   ar
    33    20    13   ar
    34    28    22   ar
    35     5    32    1
    36     6    33    1
    37     9    34    1
    38    11    35    1
    39    11    36    1
    40    12    37    1
    41    14    38    1
    42    17    39    1
    43    20    40    1
    44    23    41    1
    45    24    42    1
    46    27    43    1
    47    28    44    1
    48    30    45    1
    49    31    46    1
@<TRIPOS>MOLECULE
20sa23_out
 46 49 0 0 0
SMALL
GASTEIGER

@<TRIPOS>ATOM
      1 O          13.0450   23.1610   29.5900 O.co2   1  UNL1       -0.5446
      2 C          13.9360   22.6190   30.2200 C.2     1  UNL1        0.0717
      3 O          15.1180   22.2680   29.6710 O.co2   1  UNL1       -0.5446
      4 C          13.8330   22.3310   31.6740 C.ar    1  UNL1       -0.0026
      5 C          13.3660   23.2680   32.6060 C.ar    1  UNL1       -0.0509
      6 C          13.3470   22.9540   33.9730 C.ar    1  UNL1       -0.0357
      7 C          13.8210   21.7110   34.4190 C.ar    1  UNL1        0.0654
      8 N          13.8880   21.4330   35.8150 N.ar    1  UNL1       -0.2390
      9 C          14.9650   20.9310   36.5020 C.ar    1  UNL1        0.0365
     10 C          14.6490   20.9610   37.8430 C.ar    1  UNL1        0.0153
     11 C          15.5770   20.6510   38.9680 C.3     1  UNL1        0.0379
     12 N          15.1790   19.5130   39.7940 N.pl3   1  UNL1       -0.3395
     13 C          15.4910   18.2260   39.3400 C.ar    1  UNL1        0.0301
     14 C          16.7010   17.6420   39.7370 C.ar    1  UNL1       -0.0224
     15 C          17.0710   16.3750   39.2750 C.ar    1  UNL1        0.0441
     16 CL         18.5440   15.6690   39.8190 Cl      1  UNL1       -0.0834
     17 C          16.2670   15.6800   38.3820 C.ar    1  UNL1       -0.0249
     18 C          15.0920   16.2770   37.9370 C.ar    1  UNL1        0.0441
     19 CL         14.0920   15.4540   36.8020 Cl      1  UNL1       -0.0834
     20 C          14.7160   17.5400   38.3960 C.ar    1  UNL1       -0.0224
     21 C          13.2890   21.3910   37.8870 C.ar    1  UNL1        0.0978
     22 C          12.4160   21.5310   39.0630 C.ar    1  UNL1        0.0026
     23 C          12.1260   20.4280   39.8850 C.ar    1  UNL1       -0.0498
     24 C          11.3190   20.5630   41.0170 C.ar    1  UNL1       -0.0258
     25 C          10.7740   21.8030   41.3220 C.ar    1  UNL1        0.1234
     26 F           9.9930   21.9320   42.4020 F       1  UNL1       -0.2055
     27 C          11.0240   22.9050   40.5160 C.ar    1  UNL1       -0.0258
     28 C          11.8440   22.7710   39.3880 C.ar    1  UNL1       -0.0498
     29 N          12.8580   21.7140   36.6530 N.ar    1  UNL1       -0.1661
     30 C          14.2770   20.7720   33.4810 C.ar    1  UNL1       -0.0357
     31 C          14.2820   21.0840   32.1170 C.ar    1  UNL1       -0.0509
     32 H          13.0134   24.2524   32.2645 H       1  UNL1        0.0625
     33 H          12.9591   23.6848   34.6979 H       1  UNL1        0.0639
     34 H          15.9071   20.5710   36.0629 H       1  UNL1        0.0834
     35 H          16.5690   20.4360   38.5441 H       1  UNL1        0.0512
     36 H          15.5689   21.5310   39.6280 H       1  UNL1        0.0512
     37 H          14.7050   19.6470   40.6480 H       1  UNL1        0.1464
     38 H          17.3684   18.1870   40.4208 H       1  UNL1        0.0651
     39 H          16.5534   14.6769   38.0331 H       1  UNL1        0.0647
     40 H          13.7964   18.0043   38.0104 H       1  UNL1        0.0651
     41 H          12.5419   19.4415   39.6323 H       1  UNL1        0.0625
     42 H          11.1170   19.6945   41.6612 H       1  UNL1        0.0646
     43 H          10.5796   23.8807   40.7622 H       1  UNL1        0.0646
     44 H          12.0415   23.6458   38.7510 H       1  UNL1        0.0625
     45 H          14.6317   19.7872   33.8193 H       1  UNL1        0.0639
     46 H          14.6418   20.3426   31.3884 H       1  UNL1        0.0625
@<TRIPOS>UNITY_ATOM_ATTR
3 1
charge -1
@<TRIPOS>BOND
     1     1     2   ar
     2     2     3   ar
     3     2     4    1
     4     4     5   ar
     5     5     6   ar
     6     6     7   ar
     7     7     8    1
     8     8     9   ar
     9     9    10   ar
    10    10    11    1
    11    11    12    1
    12    12    13    1
    13    13    14   ar
    14    14    15   ar
    15    15    16    1
    16    15    17   ar
    17    17    18   ar
    18    18    19    1
    19    18    20   ar
    20    10    21   ar
    21    21    22    1
    22    22    23   ar
    23    23    24   ar
    24    24    25   ar
    25    25    26    1
    26    25    27   ar
    27    27    28   ar
    28    21    29   ar
    29     7    30   ar
    30    30    31   ar
    31    31     4   ar
    32    29     8   ar
    33    20    13   ar
    34    28    22   ar
    35     5    32    1
    36     6    33    1
    37     9    34    1
    38    11    35    1
    39    11    36    1
    40    12    37    1
    41    14    38    1
    42    17    39    1
    43    20    40    1
    44    23    41    1
    45    24    42    1
    46    27    43    1
    47    28    44    1
    48    30    45    1
    49    31    46    1
@<TRIPOS>MOLECULE
20sa23_out
 46 49 0 0 0
SMALL
GASTEIGER

@<TRIPOS>ATOM
      1 O          11.0490   20.9170   42.7330 O.co2   1  UNL1       -0.5446
      2 C          10.9000   21.9990   42.1960 C.2     1  UNL1        0.0717
      3 O          10.1590   22.9920   42.7320 O.co2   1  UNL1       -0.5446
      4 C          11.5580   22.3570   40.9130 C.ar    1  UNL1       -0.0026
      5 C          10.8700   22.9310   39.8360 C.ar    1  UNL1       -0.0509
      6 C          11.5370   23.1930   38.6310 C.ar    1  UNL1       -0.0357
      7 C          12.8910   22.8550   38.4840 C.ar    1  UNL1        0.0654
      8 N          13.5380   23.0350   37.2280 N.ar    1  UNL1       -0.2390
      9 C          13.5460   24.1740   36.4630 C.ar    1  UNL1        0.0365
     10 C          14.4090   23.9590   35.4120 C.ar    1  UNL1        0.0153
     11 C          14.8430   24.9790   34.4130 C.3     1  UNL1        0.0379
     12 N          14.0300   25.0310   33.2000 N.pl3   1  UNL1       -0.3395
     13 C          14.1580   23.9890   32.2740 C.ar    1  UNL1        0.0301
     14 C          13.1170   23.0580   32.1530 C.ar    1  UNL1       -0.0224
     15 C          13.2200   21.9790   31.2700 C.ar    1  UNL1        0.0441
     16 CL         11.9040   20.8800   31.1150 Cl      1  UNL1       -0.0834
     17 C          14.3700   21.7810   30.5180 C.ar    1  UNL1       -0.0249
     18 C          15.4310   22.6660   30.6740 C.ar    1  UNL1        0.0441
     19 CL         16.8830   22.4270   29.7810 Cl      1  UNL1       -0.0834
     20 C          15.3340   23.7470   31.5530 C.ar    1  UNL1       -0.0224
     21 C          14.8070   22.5950   35.5400 C.ar    1  UNL1        0.0978
     22 C          15.6690   21.8100   34.6420 C.ar    1  UNL1        0.0026
     23 C          16.9800   22.2250   34.3520 C.ar    1  UNL1       -0.0498
     24 C          17.8100   21.4680   33.5210 C.ar    1  UNL1       -0.0258
     25 C          17.3220   20.3000   32.9510 C.ar    1  UNL1        0.1234
     26 F          18.1130   19.5790   32.1470 F       1  UNL1       -0.2055
     27 C          16.0230   19.8780   33.2000 C.ar    1  UNL1       -0.0258
     28 C          15.1960   20.6310   34.0440 C.ar    1  UNL1       -0.0498
     29 N          14.3040   22.0630   36.6700 N.ar    1  UNL1       -0.1661
     30 C          13.5780   22.2900   39.5690 C.ar    1  UNL1       -0.0357
     31 C          12.9130   22.0430   40.7740 C.ar    1  UNL1       -0.0509
     32 H           9.8026   23.1770   39.9362 H       1  UNL1        0.0625
     33 H          10.9967   23.6654   37.7974 H       1  UNL1        0.0639
     34 H          12.9688   25.0907   36.6543 H       1  UNL1        0.0834
     35 H          14.8043   25.9676   34.8939 H       1  UNL1        0.0512
     36 H          15.8561   24.6911   34.0955 H       1  UNL1        0.0512
     37 H          13.4080   25.7780   33.0380 H       1  UNL1        0.1464
     38 H          12.2078   23.1779   32.7604 H       1  UNL1        0.0651
     39 H          14.4405   20.9402   29.8123 H       1  UNL1        0.0647
     40 H          16.1952   24.4192   31.6811 H       1  UNL1        0.0651
     41 H          17.3592   23.1617   34.7866 H       1  UNL1        0.0625
     42 H          18.8410   21.7947   33.3202 H       1  UNL1        0.0646
     43 H          15.6442   18.9553   32.7361 H       1  UNL1        0.0646
     44 H          14.1669   20.2954   34.2399 H       1  UNL1        0.0625
     45 H          14.6448   22.0402   39.4713 H       1  UNL1        0.0639
     46 H          13.4600   21.5985   41.6185 H       1  UNL1        0.0625
@<TRIPOS>UNITY_ATOM_ATTR
3 1
charge -1
@<TRIPOS>BOND
     1     1     2   ar
     2     2     3   ar
     3     2     4    1
     4     4     5   ar
     5     5     6   ar
     6     6     7   ar
     7     7     8    1
     8     8     9   ar
     9     9    10   ar
    10    10    11    1
    11    11    12    1
    12    12    13    1
    13    13    14   ar
    14    14    15   ar
    15    15    16    1
    16    15    17   ar
    17    17    18   ar
    18    18    19    1
    19    18    20   ar
    20    10    21   ar
    21    21    22    1
    22    22    23   ar
    23    23    24   ar
    24    24    25   ar
    25    25    26    1
    26    25    27   ar
    27    27    28   ar
    28    21    29   ar
    29     7    30   ar
    30    30    31   ar
    31    31     4   ar
    32    29     8   ar
    33    20    13   ar
    34    28    22   ar
    35     5    32    1
    36     6    33    1
    37     9    34    1
    38    11    35    1
    39    11    36    1
    40    12    37    1
    41    14    38    1
    42    17    39    1
    43    20    40    1
    44    23    41    1
    45    24    42    1
    46    27    43    1
    47    28    44    1
    48    30    45    1
    49    31    46    1
@<TRIPOS>MOLECULE
20sa23_out
 46 49 0 0 0
SMALL
GASTEIGER

@<TRIPOS>ATOM
      1 O          13.0550   23.4260   29.2470 O.co2   1  UNL1       -0.5446
      2 C          13.9870   22.9760   29.8880 C.2     1  UNL1        0.0717
      3 O          15.2100   22.7620   29.3570 O.co2   1  UNL1       -0.5446
      4 C          13.8890   22.6580   31.3360 C.ar    1  UNL1       -0.0026
      5 C          13.4560   23.5860   32.2920 C.ar    1  UNL1       -0.0509
      6 C          13.4410   23.2420   33.6520 C.ar    1  UNL1       -0.0357
      7 C          13.8860   21.9780   34.0670 C.ar    1  UNL1        0.0654
      8 N          13.9580   21.6680   35.4550 N.ar    1  UNL1       -0.2390
      9 C          15.0290   21.1270   36.1220 C.ar    1  UNL1        0.0365
     10 C          14.7240   21.1340   37.4660 C.ar    1  UNL1        0.0153
     11 C          15.6550   20.7790   38.5760 C.3     1  UNL1        0.0379
     12 N          15.2050   19.6760   39.4230 N.pl3   1  UNL1       -0.3395
     13 C          15.5840   18.3750   39.0690 C.ar    1  UNL1        0.0301
     14 C          14.7670   17.6440   38.1970 C.ar    1  UNL1       -0.0224
     15 C          15.0860   16.3280   37.8490 C.ar    1  UNL1        0.0441
     16 CL         14.0830   15.4750   36.7400 Cl      1  UNL1       -0.0834
     17 C          16.2020   15.7010   38.3880 C.ar    1  UNL1       -0.0249
     18 C          16.9860   16.3980   39.2990 C.ar    1  UNL1        0.0441
     19 CL         18.3560   15.6340   40.0100 Cl      1  UNL1       -0.0834
     20 C          16.6740   17.7130   39.6490 C.ar    1  UNL1       -0.0224
     21 C          13.3750   21.5910   37.5300 C.ar    1  UNL1        0.0978
     22 C          12.5140   21.7240   38.7170 C.ar    1  UNL1        0.0026
     23 C          12.1650   20.6000   39.4870 C.ar    1  UNL1       -0.0498
     24 C          11.3700   20.7270   40.6290 C.ar    1  UNL1       -0.0258
     25 C          10.8970   21.9780   40.9950 C.ar    1  UNL1        0.1234
     26 F          10.1270   22.0990   42.0840 F       1  UNL1       -0.2055
     27 C          11.2060   23.1020   40.2410 C.ar    1  UNL1       -0.0258
     28 C          12.0140   22.9770   39.1040 C.ar    1  UNL1       -0.0498
     29 N          12.9400   21.9510   36.3080 N.ar    1  UNL1       -0.1661
     30 C          14.3080   21.0490   33.1030 C.ar    1  UNL1       -0.0357
     31 C          14.3090   21.3900   31.7470 C.ar    1  UNL1       -0.0509
     32 H          13.1270   24.5868   31.9755 H       1  UNL1        0.0625
     33 H          13.0787   23.9666   34.3962 H       1  UNL1        0.0639
     34 H          15.9595   20.7561   35.6674 H       1  UNL1        0.0834
     35 H          16.6229   20.4990   38.1347 H       1  UNL1        0.0512
     36 H          15.7148   21.6645   39.2258 H       1  UNL1        0.0512
     37 H          14.6510   19.8430   40.2200 H       1  UNL1        0.1464
     38 H          13.8626   18.1115   37.7806 H       1  UNL1        0.0651
     39 H          16.4604   14.6716   38.0990 H       1  UNL1        0.0647
     40 H          17.2935   18.2373   40.3915 H       1  UNL1        0.0651
     41 H          12.5237   19.6049   39.1853 H       1  UNL1        0.0625
     42 H          11.1214   19.8418   41.2328 H       1  UNL1        0.0646
     43 H          10.8173   24.0879   40.5358 H       1  UNL1        0.0646
     44 H          12.2590   23.8690   38.5088 H       1  UNL1        0.0625
     45 H          14.6395   20.0479   33.4159 H       1  UNL1        0.0639
     46 H          14.6425   20.6556   30.9990 H       1  UNL1        0.0625
@<TRIPOS>UNITY_ATOM_ATTR
3 1
charge -1
@<TRIPOS>BOND
     1     1     2   ar
     2     2     3   ar
     3     2     4    1
     4     4     5   ar
     5     5     6   ar
     6     6     7   ar
     7     7     8    1
     8     8     9   ar
     9     9    10   ar
    10    10    11    1
    11    11    12    1
    12    12    13    1
    13    13    14   ar
    14    14    15   ar
    15    15    16    1
    16    15    17   ar
    17    17    18   ar
    18    18    19    1
    19    18    20   ar
    20    10    21   ar
    21    21    22    1
    22    22    23   ar
    23    23    24   ar
    24    24    25   ar
    25    25    26    1
    26    25    27   ar
    27    27    28   ar
    28    21    29   ar
    29     7    30   ar
    30    30    31   ar
    31    31     4   ar
    32    29     8   ar
    33    20    13   ar
    34    28    22   ar
    35     5    32    1
    36     6    33    1
    37     9    34    1
    38    11    35    1
    39    11    36    1
    40    12    37    1
    41    14    38    1
    42    17    39    1
    43    20    40    1
    44    23    41    1
    45    24    42    1
    46    27    43    1
    47    28    44    1
    48    30    45    1
    49    31    46    1
@<TRIPOS>MOLECULE
20sa23_out
 46 49 0 0 0
SMALL
GASTEIGER

@<TRIPOS>ATOM
      1 O          10.1690   22.8530   42.7330 O.co2   1  UNL1       -0.5446
      2 C          10.2330   21.8360   42.0650 C.2     1  UNL1        0.0717
      3 O           9.5750   20.7020   42.3850 O.co2   1  UNL1       -0.5446
      4 C          11.0050   21.7540   40.7990 C.ar    1  UNL1       -0.0026
      5 C          11.7990   20.6510   40.4600 C.ar    1  UNL1       -0.0509
      6 C          12.5500   20.6590   39.2750 C.ar    1  UNL1       -0.0357
      7 C          12.5350   21.7830   38.4360 C.ar    1  UNL1        0.0654
      8 N          13.3720   21.8240   37.2840 N.ar    1  UNL1       -0.2390
      9 C          14.7270   21.6090   37.2450 C.ar    1  UNL1        0.0365
     10 C          15.1040   21.5960   35.9200 C.ar    1  UNL1        0.0153
     11 C          16.4570   21.2460   35.3980 C.3     1  UNL1        0.0379
     12 N          16.6750   19.8180   35.1740 N.pl3   1  UNL1       -0.3395
     13 C          16.1370   18.9150   36.1000 C.ar    1  UNL1        0.0301
     14 C          16.8330   18.6710   37.2920 C.ar    1  UNL1       -0.0224
     15 C          16.3540   17.7480   38.2260 C.ar    1  UNL1        0.0441
     16 CL         17.2100   17.5060   39.6990 Cl      1  UNL1       -0.0834
     17 C          15.1950   17.0230   37.9800 C.ar    1  UNL1       -0.0249
     18 C          14.5300   17.2150   36.7740 C.ar    1  UNL1        0.0441
     19 CL         13.1110   16.3050   36.4260 Cl      1  UNL1       -0.0834
     20 C          15.0020   18.1370   35.8380 C.ar    1  UNL1       -0.0224
     21 C          13.9200   21.9370   35.2010 C.ar    1  UNL1        0.0978
     22 C          13.7610   22.1390   33.7520 C.ar    1  UNL1        0.0026
     23 C          13.6230   23.4300   33.2120 C.ar    1  UNL1       -0.0498
     24 C          13.4990   23.6270   31.8350 C.ar    1  UNL1       -0.0258
     25 C          13.4860   22.5290   30.9870 C.ar    1  UNL1        0.1234
     26 F          13.3580   22.7160   29.6680 F       1  UNL1       -0.2055
     27 C          13.5970   21.2410   31.4930 C.ar    1  UNL1       -0.0258
     28 C          13.7350   21.0440   32.8740 C.ar    1  UNL1       -0.0498
     29 N          12.8700   22.0290   36.0390 N.ar    1  UNL1       -0.1661
     30 C          11.7290   22.8810   38.7740 C.ar    1  UNL1       -0.0357
     31 C          10.9710   22.8640   39.9490 C.ar    1  UNL1       -0.0509
     32 H          11.8338   19.7756   41.1251 H       1  UNL1        0.0625
     33 H          13.1530   19.7802   39.0027 H       1  UNL1        0.0639
     34 H          15.3899   21.4722   38.1121 H       1  UNL1        0.0834
     35 H          16.6007   21.7688   34.4409 H       1  UNL1        0.0512
     36 H          17.1770   21.5525   36.1711 H       1  UNL1        0.0512
     37 H          17.1840   19.4990   34.3940 H       1  UNL1        0.1464
     38 H          17.7684   19.2130   37.4951 H       1  UNL1        0.0651
     39 H          14.8106   16.3107   38.7249 H       1  UNL1        0.0647
     40 H          14.4744   18.2543   34.8799 H       1  UNL1        0.0651
     41 H          13.6125   24.2995   33.8857 H       1  UNL1        0.0625
     42 H          13.4123   24.6445   31.4260 H       1  UNL1        0.0646
     43 H          13.5767   20.3773   30.8121 H       1  UNL1        0.0646
     44 H          13.8237   20.0228   33.2730 H       1  UNL1        0.0625
     45 H          11.6934   23.7587   38.1119 H       1  UNL1        0.0639
     46 H          10.3435   23.7300   40.2066 H       1  UNL1        0.0625
@<TRIPOS>UNITY_ATOM_ATTR
3 1
charge -1
@<TRIPOS>BOND
     1     1     2   ar
     2     2     3   ar
     3     2     4    1
     4     4     5   ar
     5     5     6   ar
     6     6     7   ar
     7     7     8    1
     8     8     9   ar
     9     9    10   ar
    10    10    11    1
    11    11    12    1
    12    12    13    1
    13    13    14   ar
    14    14    15   ar
    15    15    16    1
    16    15    17   ar
    17    17    18   ar
    18    18    19    1
    19    18    20   ar
    20    10    21   ar
    21    21    22    1
    22    22    23   ar
    23    23    24   ar
    24    24    25   ar
    25    25    26    1
    26    25    27   ar
    27    27    28   ar
    28    21    29   ar
    29     7    30   ar
    30    30    31   ar
    31    31     4   ar
    32    29     8   ar
    33    20    13   ar
    34    28    22   ar
    35     5    32    1
    36     6    33    1
    37     9    34    1
    38    11    35    1
    39    11    36    1
    40    12    37    1
    41    14    38    1
    42    17    39    1
    43    20    40    1
    44    23    41    1
    45    24    42    1
    46    27    43    1
    47    28    44    1
    48    30    45    1
    49    31    46    1
@<TRIPOS>MOLECULE
20sa23_out
 46 49 0 0 0
SMALL
GASTEIGER

@<TRIPOS>ATOM
      1 O          10.1020   20.5880   42.2040 O.co2   1  UNL1       -0.5446
      2 C          10.4880   21.7190   41.9710 C.2     1  UNL1        0.0717
      3 O          10.1520   22.7830   42.7310 O.co2   1  UNL1       -0.5446
      4 C          11.4100   22.0390   40.8510 C.ar    1  UNL1       -0.0026
      5 C          11.0630   22.8960   39.7990 C.ar    1  UNL1       -0.0509
      6 C          11.9570   23.1140   38.7410 C.ar    1  UNL1       -0.0357
      7 C          13.1940   22.4510   38.7140 C.ar    1  UNL1        0.0654
      8 N          14.0580   22.6000   37.5910 N.ar    1  UNL1       -0.2390
      9 C          15.3910   22.2790   37.5310 C.ar    1  UNL1        0.0365
     10 C          15.7970   22.4420   36.2250 C.ar    1  UNL1        0.0153
     11 C          17.1280   22.0630   35.6680 C.3     1  UNL1        0.0379
     12 N          17.2290   20.6770   35.2170 N.pl3   1  UNL1       -0.3395
     13 C          16.5160   20.3020   34.0720 C.ar    1  UNL1        0.0301
     14 C          16.8190   20.9200   32.8510 C.ar    1  UNL1       -0.0224
     15 C          16.1040   20.6060   31.6910 C.ar    1  UNL1        0.0441
     16 CL         16.5330   21.3520   30.2000 Cl      1  UNL1       -0.0834
     17 C          15.0520   19.7000   31.7270 C.ar    1  UNL1       -0.0249
     18 C          14.7070   19.1250   32.9440 C.ar    1  UNL1        0.0441
     19 CL         13.3850   18.0240   33.0260 Cl      1  UNL1       -0.0834
     20 C          15.4170   19.4330   34.1060 C.ar    1  UNL1       -0.0224
     21 C          14.6620   22.9910   35.5580 C.ar    1  UNL1        0.0978
     22 C          14.5550   23.4310   34.1570 C.ar    1  UNL1        0.0026
     23 C          13.5930   22.8760   33.2960 C.ar    1  UNL1       -0.0498
     24 C          13.4720   23.3100   31.9730 C.ar    1  UNL1       -0.0258
     25 C          14.3320   24.2890   31.4960 C.ar    1  UNL1        0.1234
     26 F          14.2220   24.7000   30.2260 F       1  UNL1       -0.2055
     27 C          15.3070   24.8390   32.3170 C.ar    1  UNL1       -0.0258
     28 C          15.4190   24.4130   33.6460 C.ar    1  UNL1       -0.0498
     29 N          13.6040   23.0400   36.3900 N.ar    1  UNL1       -0.1661
     30 C          13.5410   21.6020   39.7760 C.ar    1  UNL1       -0.0357
     31 C          12.6520   21.3980   40.8360 C.ar    1  UNL1       -0.0509
     32 H          10.0853   23.4001   39.8028 H       1  UNL1        0.0625
     33 H          11.6882   23.8066   37.9298 H       1  UNL1        0.0639
     34 H          16.0200   21.9515   38.3719 H       1  UNL1        0.0834
     35 H          17.3398   22.7186   34.8105 H       1  UNL1        0.0512
     36 H          17.8518   22.1762   36.4886 H       1  UNL1        0.0512
     37 H          17.7850   20.0240   35.7020 H       1  UNL1        0.1464
     38 H          17.6299   21.6618   32.8046 H       1  UNL1        0.0651
     39 H          14.5024   19.4425   30.8096 H       1  UNL1        0.0647
     40 H          15.1090   18.9867   35.0631 H       1  UNL1        0.0651
     41 H          12.9240   22.0868   33.6696 H       1  UNL1        0.0625
     42 H          12.7021   22.8795   31.3159 H       1  UNL1        0.0646
     43 H          15.9895   25.6072   31.9246 H       1  UNL1        0.0646
     44 H          16.1907   24.8515   34.2957 H       1  UNL1        0.0625
     45 H          14.5169   21.0945   39.7747 H       1  UNL1        0.0639
     46 H          12.9319   20.7290   41.6631 H       1  UNL1        0.0625
@<TRIPOS>UNITY_ATOM_ATTR
3 1
charge -1
@<TRIPOS>BOND
     1     1     2   ar
     2     2     3   ar
     3     2     4    1
     4     4     5   ar
     5     5     6   ar
     6     6     7   ar
     7     7     8    1
     8     8     9   ar
     9     9    10   ar
    10    10    11    1
    11    11    12    1
    12    12    13    1
    13    13    14   ar
    14    14    15   ar
    15    15    16    1
    16    15    17   ar
    17    17    18   ar
    18    18    19    1
    19    18    20   ar
    20    10    21   ar
    21    21    22    1
    22    22    23   ar
    23    23    24   ar
    24    24    25   ar
    25    25    26    1
    26    25    27   ar
    27    27    28   ar
    28    21    29   ar
    29     7    30   ar
    30    30    31   ar
    31    31     4   ar
    32    29     8   ar
    33    20    13   ar
    34    28    22   ar
    35     5    32    1
    36     6    33    1
    37     9    34    1
    38    11    35    1
    39    11    36    1
    40    12    37    1
    41    14    38    1
    42    17    39    1
    43    20    40    1
    44    23    41    1
    45    24    42    1
    46    27    43    1
    47    28    44    1
    48    30    45    1
    49    31    46    1
@<TRIPOS>MOLECULE
20sa23_out
 46 49 0 0 0
SMALL
GASTEIGER

@<TRIPOS>ATOM
      1 O          16.1200   21.4150   29.2290 O.co2   1  UNL1       -0.5446
      2 C          15.3870   21.7210   30.1530 C.2     1  UNL1        0.0717
      3 O          14.2900   22.4920   29.9980 O.co2   1  UNL1       -0.5446
      4 C          15.6000   21.2390   31.5420 C.ar    1  UNL1       -0.0026
      5 C          15.7150   19.8820   31.8680 C.ar    1  UNL1       -0.0509
      6 C          15.8580   19.4870   33.2070 C.ar    1  UNL1       -0.0357
      7 C          15.8550   20.4470   34.2300 C.ar    1  UNL1        0.0654
      8 N          15.9040   20.0350   35.5930 N.ar    1  UNL1       -0.2390
      9 C          15.1320   20.5100   36.6240 C.ar    1  UNL1        0.0365
     10 C          15.4010   19.7370   37.7310 C.ar    1  UNL1        0.0153
     11 C          14.6810   19.7970   39.0360 C.3     1  UNL1        0.0379
     12 N          14.6340   21.1230   39.6490 N.pl3   1  UNL1       -0.3395
     13 C          13.3820   21.7240   39.8280 C.ar    1  UNL1        0.0301
     14 C          12.8120   22.4330   38.7610 C.ar    1  UNL1       -0.0224
     15 C          11.5830   23.0820   38.9080 C.ar    1  UNL1        0.0441
     16 CL         10.8910   23.9060   37.5640 Cl      1  UNL1       -0.0834
     17 C          10.9130   23.0710   40.1240 C.ar    1  UNL1       -0.0249
     18 C          11.4980   22.4200   41.2040 C.ar    1  UNL1        0.0441
     19 CL         10.7080   22.4200   42.7330 Cl      1  UNL1       -0.0834
     20 C          12.7250   21.7680   41.0640 C.ar    1  UNL1       -0.0224
     21 C          16.4580   18.8710   37.3220 C.ar    1  UNL1        0.0978
     22 C          17.1880   17.8810   38.1310 C.ar    1  UNL1        0.0026
     23 C          16.5010   16.9310   38.9060 C.ar    1  UNL1       -0.0498
     24 C          17.1910   15.9740   39.6540 C.ar    1  UNL1       -0.0258
     25 C          18.5790   15.9770   39.6520 C.ar    1  UNL1        0.1234
     26 F          19.2410   15.0660   40.3750 F       1  UNL1       -0.2055
     27 C          19.2840   16.9190   38.9150 C.ar    1  UNL1       -0.0258
     28 C          18.5920   17.8700   38.1540 C.ar    1  UNL1       -0.0498
     29 N          16.7210   19.0350   36.0120 N.ar    1  UNL1       -0.1661
     30 C          15.7510   21.8060   33.8970 C.ar    1  UNL1       -0.0357
     31 C          15.6230   22.1960   32.5600 C.ar    1  UNL1       -0.0509
     32 H          15.6932   19.1232   31.0719 H       1  UNL1        0.0625
     33 H          15.9728   18.4215   33.4552 H       1  UNL1        0.0639
     34 H          14.4277   21.3535   36.5747 H       1  UNL1        0.0834
     35 H          13.6472   19.4586   38.8725 H       1  UNL1        0.0512
     36 H          15.2430   19.1545   39.7299 H       1  UNL1        0.0512
     37 H          15.4600   21.5810   39.9300 H       1  UNL1        0.1464
     38 H          13.3386   22.4790   37.7964 H       1  UNL1        0.0651
     39 H           9.9376   23.5681   40.2308 H       1  UNL1        0.0647
     40 H          13.1825   21.2815   41.9381 H       1  UNL1        0.0651
     41 H          15.4012   16.9412   38.9239 H       1  UNL1        0.0625
     42 H          16.6389   15.2243   40.2397 H       1  UNL1        0.0646
     43 H          20.3839   16.9186   38.9286 H       1  UNL1        0.0646
     44 H          19.1530   18.6142   37.5697 H       1  UNL1        0.0625
     45 H          15.7702   22.5676   34.6905 H       1  UNL1        0.0639
     46 H          15.5399   23.2635   32.3080 H       1  UNL1        0.0625
@<TRIPOS>UNITY_ATOM_ATTR
3 1
charge -1
@<TRIPOS>BOND
     1     1     2   ar
     2     2     3   ar
     3     2     4    1
     4     4     5   ar
     5     5     6   ar
     6     6     7   ar
     7     7     8    1
     8     8     9   ar
     9     9    10   ar
    10    10    11    1
    11    11    12    1
    12    12    13    1
    13    13    14   ar
    14    14    15   ar
    15    15    16    1
    16    15    17   ar
    17    17    18   ar
    18    18    19    1
    19    18    20   ar
    20    10    21   ar
    21    21    22    1
    22    22    23   ar
    23    23    24   ar
    24    24    25   ar
    25    25    26    1
    26    25    27   ar
    27    27    28   ar
    28    21    29   ar
    29     7    30   ar
    30    30    31   ar
    31    31     4   ar
    32    29     8   ar
    33    20    13   ar
    34    28    22   ar
    35     5    32    1
    36     6    33    1
    37     9    34    1
    38    11    35    1
    39    11    36    1
    40    12    37    1
    41    14    38    1
    42    17    39    1
    43    20    40    1
    44    23    41    1
    45    24    42    1
    46    27    43    1
    47    28    44    1
    48    30    45    1
    49    31    46    1
@<TRIPOS>MOLECULE
20sa23_out
 46 49 0 0 0
SMALL
GASTEIGER

@<TRIPOS>ATOM
      1 O          14.1780   22.5770   29.9110 O.co2   1  UNL1       -0.5446
      2 C          15.0820   21.8200   30.2200 C.2     1  UNL1        0.0717
      3 O          16.0660   21.4630   29.3690 O.co2   1  UNL1       -0.5446
      4 C          15.2200   21.2490   31.5850 C.ar    1  UNL1       -0.0026
      5 C          14.2250   20.4710   32.1910 C.ar    1  UNL1       -0.0509
      6 C          14.3930   20.0090   33.5040 C.ar    1  UNL1       -0.0357
      7 C          15.5440   20.3470   34.2310 C.ar    1  UNL1        0.0654
      8 N          15.6670   19.9560   35.5950 N.ar    1  UNL1       -0.2390
      9 C          14.9280   20.4220   36.6540 C.ar    1  UNL1        0.0365
     10 C          15.2690   19.6720   37.7570 C.ar    1  UNL1        0.0153
     11 C          14.6070   19.7290   39.0930 C.3     1  UNL1        0.0379
     12 N          14.6410   21.0410   39.7370 N.pl3   1  UNL1       -0.3395
     13 C          13.4380   21.7460   39.8620 C.ar    1  UNL1        0.0301
     14 C          12.7290   21.6680   41.0680 C.ar    1  UNL1       -0.0224
     15 C          11.5030   22.3240   41.2220 C.ar    1  UNL1        0.0441
     16 CL         10.6810   22.2440   42.7320 Cl      1  UNL1       -0.0834
     17 C          10.9410   23.0380   40.1720 C.ar    1  UNL1       -0.0249
     18 C          11.6100   23.0730   38.9540 C.ar    1  UNL1        0.0441
     19 CL         10.9210   23.9220   37.6240 Cl      1  UNL1       -0.0834
     20 C          12.8340   22.4220   38.7940 C.ar    1  UNL1       -0.0224
     21 C          16.3310   18.8310   37.3110 C.ar    1  UNL1        0.0978
     22 C          17.1250   17.8730   38.0980 C.ar    1  UNL1        0.0026
     23 C          18.5290   17.8650   38.0250 C.ar    1  UNL1       -0.0498
     24 C          19.2870   16.9750   38.7910 C.ar    1  UNL1       -0.0258
     25 C          18.6410   16.0660   39.6170 C.ar    1  UNL1        0.1234
     26 F          19.3660   15.2070   40.3440 F       1  UNL1       -0.2055
     27 C          17.2550   16.0350   39.6910 C.ar    1  UNL1       -0.0258
     28 C          16.4960   16.9370   38.9340 C.ar    1  UNL1       -0.0498
     29 N          16.5290   18.9840   35.9880 N.ar    1  UNL1       -0.1661
     30 C          16.5430   21.1180   33.6160 C.ar    1  UNL1       -0.0357
     31 C          16.3780   21.5650   32.3010 C.ar    1  UNL1       -0.0509
     32 H          13.3092   20.2218   31.6350 H       1  UNL1        0.0625
     33 H          13.6189   19.3787   33.9660 H       1  UNL1        0.0639
     34 H          14.1974   21.2439   36.6263 H       1  UNL1        0.0834
     35 H          13.5541   19.4369   38.9662 H       1  UNL1        0.0512
     36 H          15.1699   19.0473   39.7476 H       1  UNL1        0.0512
     37 H          15.4860   21.4170   40.0750 H       1  UNL1        0.1464
     38 H          13.1414   21.0838   41.9039 H       1  UNL1        0.0651
     39 H           9.9847   23.5658   40.3016 H       1  UNL1        0.0647
     40 H          13.3325   22.4400   37.8136 H       1  UNL1        0.0651
     41 H          19.0396   18.5711   37.3537 H       1  UNL1        0.0625
     42 H          20.3856   16.9949   38.7396 H       1  UNL1        0.0646
     43 H          16.7539   15.3039   40.3425 H       1  UNL1        0.0646
     44 H          15.3980   16.9116   38.9952 H       1  UNL1        0.0625
     45 H          17.4587   21.3715   34.1702 H       1  UNL1        0.0639
     46 H          17.1652   22.1696   31.8269 H       1  UNL1        0.0625
@<TRIPOS>UNITY_ATOM_ATTR
3 1
charge -1
@<TRIPOS>BOND
     1     1     2   ar
     2     2     3   ar
     3     2     4    1
     4     4     5   ar
     5     5     6   ar
     6     6     7   ar
     7     7     8    1
     8     8     9   ar
     9     9    10   ar
    10    10    11    1
    11    11    12    1
    12    12    13    1
    13    13    14   ar
    14    14    15   ar
    15    15    16    1
    16    15    17   ar
    17    17    18   ar
    18    18    19    1
    19    18    20   ar
    20    10    21   ar
    21    21    22    1
    22    22    23   ar
    23    23    24   ar
    24    24    25   ar
    25    25    26    1
    26    25    27   ar
    27    27    28   ar
    28    21    29   ar
    29     7    30   ar
    30    30    31   ar
    31    31     4   ar
    32    29     8   ar
    33    20    13   ar
    34    28    22   ar
    35     5    32    1
    36     6    33    1
    37     9    34    1
    38    11    35    1
    39    11    36    1
    40    12    37    1
    41    14    38    1
    42    17    39    1
    43    20    40    1
    44    23    41    1
    45    24    42    1
    46    27    43    1
    47    28    44    1
    48    30    45    1
    49    31    46    1
@<TRIPOS>MOLECULE
20sa23_out
 46 49 0 0 0
SMALL
GASTEIGER

@<TRIPOS>ATOM
      1 O          18.4780   15.4400   38.8950 O.co2   1  UNL1       -0.5446
      2 C          17.8540   16.2050   39.6090 C.2     1  UNL1        0.0717
      3 O          17.6240   15.9670   40.9180 O.co2   1  UNL1       -0.5446
      4 C          17.3220   17.5050   39.1250 C.ar    1  UNL1       -0.0026
      5 C          16.0300   17.9570   39.4190 C.ar    1  UNL1       -0.0509
      6 C          15.5670   19.1680   38.8830 C.ar    1  UNL1       -0.0357
      7 C          16.3840   19.9200   38.0260 C.ar    1  UNL1        0.0654
      8 N          15.8760   21.1000   37.4090 N.ar    1  UNL1       -0.2390
      9 C          16.2920   21.6520   36.2240 C.ar    1  UNL1        0.0365
     10 C          15.4370   22.6910   35.9300 C.ar    1  UNL1        0.0153
     11 C          15.4180   23.4780   34.6630 C.3     1  UNL1        0.0379
     12 N          14.5110   22.9660   33.6380 N.pl3   1  UNL1       -0.3395
     13 C          14.8220   21.7410   33.0340 C.ar    1  UNL1        0.0301
     14 C          13.8990   20.6900   33.1200 C.ar    1  UNL1       -0.0224
     15 C          14.1860   19.4380   32.5670 C.ar    1  UNL1        0.0441
     16 CL         13.0110   18.1820   32.6520 Cl      1  UNL1       -0.0834
     17 C          15.4060   19.1940   31.9500 C.ar    1  UNL1       -0.0249
     18 C          16.3500   20.2140   31.9120 C.ar    1  UNL1        0.0441
     19 CL         17.8850   19.9310   31.1850 Cl      1  UNL1       -0.0834
     20 C          16.0700   21.4670   32.4610 C.ar    1  UNL1       -0.0224
     21 C          14.5810   22.7900   37.0670 C.ar    1  UNL1        0.0978
     22 C          13.5220   23.7790   37.3250 C.ar    1  UNL1        0.0026
     23 C          12.1640   23.4190   37.2630 C.ar    1  UNL1       -0.0498
     24 C          11.1570   24.3490   37.5340 C.ar    1  UNL1       -0.0258
     25 C          11.5030   25.6560   37.8440 C.ar    1  UNL1        0.1234
     26 F          10.5380   26.5500   38.0950 F       1  UNL1       -0.2055
     27 C          12.8340   26.0470   37.8900 C.ar    1  UNL1       -0.0258
     28 C          13.8440   25.1100   37.6320 C.ar    1  UNL1       -0.0498
     29 N          14.8320   21.7910   37.9340 N.ar    1  UNL1       -0.1661
     30 C          17.6820   19.4680   37.7430 C.ar    1  UNL1       -0.0357
     31 C          18.1450   18.2670   38.2900 C.ar    1  UNL1       -0.0509
     32 H          15.3759   17.3608   40.0722 H       1  UNL1        0.0625
     33 H          14.5592   19.5292   39.1358 H       1  UNL1        0.0639
     34 H          17.1508   21.3248   35.6195 H       1  UNL1        0.0834
     35 H          15.1157   24.5078   34.9041 H       1  UNL1        0.0512
     36 H          16.4318   23.4112   34.2413 H       1  UNL1        0.0512
     37 H          13.7030   23.4660   33.3800 H       1  UNL1        0.1464
     38 H          12.9372   20.8518   33.6286 H       1  UNL1        0.0651
     39 H          15.6211   18.2134   31.5004 H       1  UNL1        0.0647
     40 H          16.8416   22.2508   32.4431 H       1  UNL1        0.0651
     41 H          11.8898   22.3876   36.9966 H       1  UNL1        0.0625
     42 H          10.0996   24.0475   37.5018 H       1  UNL1        0.0646
     43 H          13.0953   27.0886   38.1281 H       1  UNL1        0.0646
     44 H          14.8985   25.4207   37.6705 H       1  UNL1        0.0625
     45 H          18.3379   20.0606   37.0883 H       1  UNL1        0.0639
     46 H          19.1634   17.9195   38.0618 H       1  UNL1        0.0625
@<TRIPOS>UNITY_ATOM_ATTR
3 1
charge -1
@<TRIPOS>BOND
     1     1     2   ar
     2     2     3   ar
     3     2     4    1
     4     4     5   ar
     5     5     6   ar
     6     6     7   ar
     7     7     8    1
     8     8     9   ar
     9     9    10   ar
    10    10    11    1
    11    11    12    1
    12    12    13    1
    13    13    14   ar
    14    14    15   ar
    15    15    16    1
    16    15    17   ar
    17    17    18   ar
    18    18    19    1
    19    18    20   ar
    20    10    21   ar
    21    21    22    1
    22    22    23   ar
    23    23    24   ar
    24    24    25   ar
    25    25    26    1
    26    25    27   ar
    27    27    28   ar
    28    21    29   ar
    29     7    30   ar
    30    30    31   ar
    31    31     4   ar
    32    29     8   ar
    33    20    13   ar
    34    28    22   ar
    35     5    32    1
    36     6    33    1
    37     9    34    1
    38    11    35    1
    39    11    36    1
    40    12    37    1
    41    14    38    1
    42    17    39    1
    43    20    40    1
    44    23    41    1
    45    24    42    1
    46    27    43    1
    47    28    44    1
    48    30    45    1
    49    31    46    1
@<TRIPOS>MOLECULE
20sa23_out
 46 49 0 0 0
SMALL
GASTEIGER

@<TRIPOS>ATOM
      1 O          10.3780   26.1970   38.0410 O.co2   1  UNL1       -0.5446
      2 C          10.3470   25.0230   38.3660 C.2     1  UNL1        0.0717
      3 O           9.3910   24.5060   39.1670 O.co2   1  UNL1       -0.5446
      4 C          11.3330   24.0270   37.8740 C.ar    1  UNL1       -0.0026
      5 C          11.6360   23.8580   36.5170 C.ar    1  UNL1       -0.0509
      6 C          12.5340   22.8600   36.1130 C.ar    1  UNL1       -0.0357
      7 C          13.1130   22.0040   37.0620 C.ar    1  UNL1        0.0654
      8 N          13.9500   20.9320   36.6380 N.ar    1  UNL1       -0.2390
      9 C          14.1160   20.4770   35.3540 C.ar    1  UNL1        0.0365
     10 C          15.1200   19.5350   35.3760 C.ar    1  UNL1        0.0153
     11 C          15.7390   18.8860   34.1840 C.3     1  UNL1        0.0379
     12 N          14.7960   18.1950   33.3060 N.pl3   1  UNL1       -0.3395
     13 C          14.0210   17.1630   33.8510 C.ar    1  UNL1        0.0301
     14 C          14.5870   16.3360   34.8300 C.ar    1  UNL1       -0.0224
     15 C          13.8640   15.2690   35.3720 C.ar    1  UNL1        0.0441
     16 CL         14.5730   14.3000   36.6060 Cl      1  UNL1       -0.0834
     17 C          12.5800   14.9800   34.9270 C.ar    1  UNL1       -0.0249
     18 C          12.0330   15.7600   33.9150 C.ar    1  UNL1        0.0441
     19 CL         10.4570   15.4050   33.3190 Cl      1  UNL1       -0.0834
     20 C          12.7490   16.8280   33.3710 C.ar    1  UNL1       -0.0224
     21 C          15.4420   19.3780   36.7570 C.ar    1  UNL1        0.0978
     22 C          16.3990   18.4430   37.3690 C.ar    1  UNL1        0.0026
     23 C          17.7840   18.6790   37.3040 C.ar    1  UNL1       -0.0498
     24 C          18.6940   17.8070   37.9060 C.ar    1  UNL1       -0.0258
     25 C          18.2250   16.6750   38.5570 C.ar    1  UNL1        0.1234
     26 F          19.0970   15.8330   39.1260 F       1  UNL1       -0.2055
     27 C          16.8650   16.4030   38.6170 C.ar    1  UNL1       -0.0258
     28 C          15.9510   17.2850   38.0250 C.ar    1  UNL1       -0.0498
     29 N          14.7540   20.2630   37.5040 N.ar    1  UNL1       -0.1661
     30 C          12.8150   22.1840   38.4220 C.ar    1  UNL1       -0.0357
     31 C          11.9290   23.1890   38.8220 C.ar    1  UNL1       -0.0509
     32 H          11.1677   24.5107   35.7655 H       1  UNL1        0.0625
     33 H          12.7856   22.7477   35.0481 H       1  UNL1        0.0639
     34 H          13.5505   20.8048   34.4692 H       1  UNL1        0.0834
     35 H          16.2478   19.6640   33.5958 H       1  UNL1        0.0512
     36 H          16.4247   18.1173   34.5698 H       1  UNL1        0.0512
     37 H          14.7070   18.4480   32.3580 H       1  UNL1        0.1464
     38 H          15.6131   16.5285   35.1766 H       1  UNL1        0.0651
     39 H          12.0075   14.1501   35.3670 H       1  UNL1        0.0647
     40 H          12.3070   17.4154   32.5527 H       1  UNL1        0.0651
     41 H          18.1569   19.5654   36.7700 H       1  UNL1        0.0625
     42 H          19.7732   18.0159   37.8644 H       1  UNL1        0.0646
     43 H          16.5058   15.4975   39.1279 H       1  UNL1        0.0646
     44 H          14.8737   17.0684   38.0746 H       1  UNL1        0.0625
     45 H          13.2803   21.5319   39.1758 H       1  UNL1        0.0639
     46 H          11.6992   23.3215   39.8895 H       1  UNL1        0.0625
@<TRIPOS>UNITY_ATOM_ATTR
3 1
charge -1
@<TRIPOS>BOND
     1     1     2   ar
     2     2     3   ar
     3     2     4    1
     4     4     5   ar
     5     5     6   ar
     6     6     7   ar
     7     7     8    1
     8     8     9   ar
     9     9    10   ar
    10    10    11    1
    11    11    12    1
    12    12    13    1
    13    13    14   ar
    14    14    15   ar
    15    15    16    1
    16    15    17   ar
    17    17    18   ar
    18    18    19    1
    19    18    20   ar
    20    10    21   ar
    21    21    22    1
    22    22    23   ar
    23    23    24   ar
    24    24    25   ar
    25    25    26    1
    26    25    27   ar
    27    27    28   ar
    28    21    29   ar
    29     7    30   ar
    30    30    31   ar
    31    31     4   ar
    32    29     8   ar
    33    20    13   ar
    34    28    22   ar
    35     5    32    1
    36     6    33    1
    37     9    34    1
    38    11    35    1
    39    11    36    1
    40    12    37    1
    41    14    38    1
    42    17    39    1
    43    20    40    1
    44    23    41    1
    45    24    42    1
    46    27    43    1
    47    28    44    1
    48    30    45    1
    49    31    46    1
@<TRIPOS>MOLECULE
20sa23_out
 46 49 0 0 0
SMALL
GASTEIGER

@<TRIPOS>ATOM
      1 O          13.5000   26.5530   38.2140 O.co2   1  UNL1       -0.5446
      2 C          13.0150   25.8330   37.3590 C.2     1  UNL1        0.0717
      3 O          12.2670   26.3030   36.3380 O.co2   1  UNL1       -0.5446
      4 C          13.2370   24.3640   37.3250 C.ar    1  UNL1       -0.0026
      5 C          12.1990   23.4330   37.4590 C.ar    1  UNL1       -0.0509
      6 C          12.4810   22.0590   37.4750 C.ar    1  UNL1       -0.0357
      7 C          13.8080   21.6090   37.3870 C.ar    1  UNL1        0.0654
      8 N          14.0970   20.2190   37.5000 N.ar    1  UNL1       -0.2390
      9 C          13.2870   19.1770   37.1220 C.ar    1  UNL1        0.0365
     10 C          14.0140   18.0160   37.2670 C.ar    1  UNL1        0.0153
     11 C          13.5850   16.6550   36.8320 C.3     1  UNL1        0.0379
     12 N          14.0530   16.2620   35.5040 N.pl3   1  UNL1       -0.3395
     13 C          13.2230   16.5230   34.4070 C.ar    1  UNL1        0.0301
     14 C          13.3740   17.7320   33.7150 C.ar    1  UNL1       -0.0224
     15 C          12.5390   18.0510   32.6400 C.ar    1  UNL1        0.0441
     16 CL         12.7820   19.5250   31.7840 Cl      1  UNL1       -0.0834
     17 C          11.5170   17.1950   32.2530 C.ar    1  UNL1       -0.0249
     18 C          11.3230   16.0200   32.9700 C.ar    1  UNL1        0.0441
     19 CL         10.0410   14.9550   32.5370 Cl      1  UNL1       -0.0834
     20 C          12.1530   15.6940   34.0440 C.ar    1  UNL1       -0.0224
     21 C          15.2420   18.4270   37.8640 C.ar    1  UNL1        0.0978
     22 C          16.3640   17.5860   38.3090 C.ar    1  UNL1        0.0026
     23 C          16.5130   17.2320   39.6610 C.ar    1  UNL1       -0.0498
     24 C          17.5630   16.4120   40.0830 C.ar    1  UNL1       -0.0258
     25 C          18.4890   15.9600   39.1540 C.ar    1  UNL1        0.1234
     26 F          19.5000   15.1810   39.5580 F       1  UNL1       -0.2055
     27 C          18.3820   16.3120   37.8150 C.ar    1  UNL1       -0.0258
     28 C          17.3210   17.1230   37.3910 C.ar    1  UNL1       -0.0498
     29 N          15.2930   19.7690   37.9580 N.ar    1  UNL1       -0.1661
     30 C          14.8420   22.5460   37.2410 C.ar    1  UNL1       -0.0357
     31 C          14.5560   23.9140   37.2120 C.ar    1  UNL1       -0.0509
     32 H          11.1595   23.7805   37.5520 H       1  UNL1        0.0625
     33 H          11.6598   21.3317   37.5568 H       1  UNL1        0.0639
     34 H          12.2483   19.2549   36.7683 H       1  UNL1        0.0834
     35 H          13.9691   15.9256   37.5603 H       1  UNL1        0.0512
     36 H          12.4865   16.6775   36.7800 H       1  UNL1        0.0512
     37 H          14.9290   15.8270   35.3830 H       1  UNL1        0.1464
     38 H          14.1592   18.4388   34.0213 H       1  UNL1        0.0651
     39 H          10.8733   17.4416   31.3958 H       1  UNL1        0.0647
     40 H          11.9643   14.7724   34.6141 H       1  UNL1        0.0651
     41 H          15.7901   17.6072   40.4003 H       1  UNL1        0.0625
     42 H          17.6544   16.1276   41.1417 H       1  UNL1        0.0646
     43 H          19.1279   15.9553   37.0894 H       1  UNL1        0.0646
     44 H          17.2367   17.3996   36.3297 H       1  UNL1        0.0625
     45 H          15.8829   22.2024   37.1489 H       1  UNL1        0.0639
     46 H          15.3738   24.6411   37.0996 H       1  UNL1        0.0625
@<TRIPOS>UNITY_ATOM_ATTR
3 1
charge -1
@<TRIPOS>BOND
     1     1     2   ar
     2     2     3   ar
     3     2     4    1
     4     4     5   ar
     5     5     6   ar
     6     6     7   ar
     7     7     8    1
     8     8     9   ar
     9     9    10   ar
    10    10    11    1
    11    11    12    1
    12    12    13    1
    13    13    14   ar
    14    14    15   ar
    15    15    16    1
    16    15    17   ar
    17    17    18   ar
    18    18    19    1
    19    18    20   ar
    20    10    21   ar
    21    21    22    1
    22    22    23   ar
    23    23    24   ar
    24    24    25   ar
    25    25    26    1
    26    25    27   ar
    27    27    28   ar
    28    21    29   ar
    29     7    30   ar
    30    30    31   ar
    31    31     4   ar
    32    29     8   ar
    33    20    13   ar
    34    28    22   ar
    35     5    32    1
    36     6    33    1
    37     9    34    1
    38    11    35    1
    39    11    36    1
    40    12    37    1
    41    14    38    1
    42    17    39    1
    43    20    40    1
    44    23    41    1
    45    24    42    1
    46    27    43    1
    47    28    44    1
    48    30    45    1
    49    31    46    1
