# siam chowdhury
# Computational and Medicinal Chemistry
# [Dr. Alam's Research Team] www.alamresearch.org
# Arkansas State University
# 20sa23 best docked pose (7L00 FabK)
@<TRIPOS>MOLECULE
20sa23_out
 46 49 0 0 0
SMALL
GASTEIGER

@<TRIPOS>ATOM
      1 O          16.1860   13.5540   35.5730 O.co2   1  UNL1       -0.5446
      2 C          15.4140   14.4580   35.3110 C.2     1  UNL1        0.0717
      3 O          14.4770   14.3680   34.3420 O.co2   1  UNL1       -0.5446
      4 C          15.3900   15.7390   36.0630 C.ar    1  UNL1       -0.0026
      5 C          15.7690   15.8410   37.4070 C.ar    1  UNL1       -0.0509
      6 C          15.6690   17.0690   38.0770 C.ar    1  UNL1       -0.0357
      7 C          15.1610   18.1970   37.4140 C.ar    1  UNL1        0.0654
      8 N          14.9720   19.4170   38.1250 N.ar    1  UNL1       -0.2390
      9 C          15.7970   20.5140   38.1080 C.ar    1  UNL1        0.0365
     10 C          15.1650   21.5160   38.8100 C.ar    1  UNL1        0.0153
     11 C          15.6250   22.9300   38.9230 C.3     1  UNL1        0.0379
     12 N          15.7640   23.6310   37.6480 N.pl3   1  UNL1       -0.3395
     13 C          14.6010   24.0950   37.0200 C.ar    1  UNL1        0.0301
     14 C          14.4980   23.9980   35.6260 C.ar    1  UNL1       -0.0224
     15 C          13.3730   24.4850   34.9540 C.ar    1  UNL1        0.0441
     16 CL         13.2600   24.3080   33.2450 Cl      1  UNL1       -0.0834
     17 C          12.3450   25.1090   35.6480 C.ar    1  UNL1       -0.0249
     18 C          12.4640   25.2620   37.0240 C.ar    1  UNL1        0.0441
     19 CL         11.2220   26.0640   37.9070 Cl      1  UNL1       -0.0834
     20 C          13.5840   24.7770   37.7010 C.ar    1  UNL1       -0.0224
     21 C          13.9890   20.9050   39.3370 C.ar    1  UNL1        0.0978
     22 C          12.9780   21.4960   40.2290 C.ar    1  UNL1        0.0026
     23 C          11.8950   22.2280   39.7110 C.ar    1  UNL1       -0.0498
     24 C          10.9200   22.7680   40.5530 C.ar    1  UNL1       -0.0258
     25 C          11.0350   22.6000   41.9250 C.ar    1  UNL1        0.1234
     26 F          10.1050   23.1240   42.7330 F       1  UNL1       -0.2055
     27 C          12.1050   21.9020   42.4670 C.ar    1  UNL1       -0.0258
     28 C          13.0760   21.3490   41.6220 C.ar    1  UNL1       -0.0498
     29 N          13.8650   19.6460   38.8760 N.ar    1  UNL1       -0.1661
     30 C          14.7930   18.0910   36.0640 C.ar    1  UNL1       -0.0357
     31 C          14.9060   16.8680   35.3950 C.ar    1  UNL1       -0.0509
     32 H          16.1463   14.9552   37.9390 H       1  UNL1        0.0625
     33 H          15.9899   17.1484   39.1261 H       1  UNL1        0.0639
     34 H          16.7820   20.5804   37.6228 H       1  UNL1        0.0834
     35 H          14.8969   23.4790   39.5382 H       1  UNL1        0.0512
     36 H          16.6298   22.8950   39.3693 H       1  UNL1        0.0512
     37 H          16.6490   23.7750   37.2410 H       1  UNL1        0.1464
     38 H          15.3132   23.5324   35.0527 H       1  UNL1        0.0651
     39 H          11.4531   25.4754   35.1185 H       1  UNL1        0.0647
     40 H          13.6697   24.9327   38.7866 H       1  UNL1        0.0651
     41 H          11.8142   22.3780   38.6243 H       1  UNL1        0.0625
     42 H          10.0682   23.3218   40.1315 H       1  UNL1        0.0646
     43 H          12.1905   21.7832   43.5572 H       1  UNL1        0.0646
     44 H          13.9226   20.7948   42.0535 H       1  UNL1        0.0625
     45 H          14.4137   18.9743   35.5292 H       1  UNL1        0.0639
     46 H          14.6125   16.7939   34.3375 H       1  UNL1        0.0625
@<TRIPOS>UNITY_ATOM_ATTR
3 1
charge -1
@<TRIPOS>BOND
     1     1     2   ar
     2     2     3   ar
     3     2     4    1
     4     4     5   ar
     5     5     6   ar
     6     6     7   ar
     7     7     8    1
     8     8     9   ar
     9     9    10   ar
    10    10    11    1
    11    11    12    1
    12    12    13    1
    13    13    14   ar
    14    14    15   ar
    15    15    16    1
    16    15    17   ar
    17    17    18   ar
    18    18    19    1
    19    18    20   ar
    20    10    21   ar
    21    21    22    1
    22    22    23   ar
    23    23    24   ar
    24    24    25   ar
    25    25    26    1
    26    25    27   ar
    27    27    28   ar
    28    21    29   ar
    29     7    30   ar
    30    30    31   ar
    31    31     4   ar
    32    29     8   ar
    33    20    13   ar
    34    28    22   ar
    35     5    32    1
    36     6    33    1
    37     9    34    1
    38    11    35    1
    39    11    36    1
    40    12    37    1
    41    14    38    1
    42    17    39    1
    43    20    40    1
    44    23    41    1
    45    24    42    1
    46    27    43    1
    47    28    44    1
    48    30    45    1
    49    31    46    1
