
 OpenBabel09272601583D

 49 52  0  0  0  0  0  0  0  0999 V2000
    2.2590    0.6103   -0.6416 O   0  5  0  0  0  0  0  0  0  0  0  0
    1.6786   -1.5665   -0.8434 O   0  0  0  0  0  0  0  0  0  0  0  0
    2.2376   -0.6733   -0.2286 C   0  0  0  0  0  0  0  0  0  0  0  0
    9.3145    3.4447   12.5271 F   0  0  0  0  0  0  0  0  0  0  0  0
   10.2771    2.8437   10.6724 F   0  0  0  0  0  0  0  0  0  0  0  0
    8.5264    4.1318   10.6216 F   0  0  0  0  0  0  0  0  0  0  0  0
    9.0622    3.0481   11.2490 C   0  0  0  0  0  0  0  0  0  0  0  0
    6.5154   -0.4084   10.9506 C   0  0  0  0  0  0  0  0  0  0  0  0
    6.8631    0.1011   12.1936 C   0  0  0  0  0  0  0  0  0  0  0  0
    7.6728    1.2219   12.3124 C   0  0  0  0  0  0  0  0  0  0  0  0
    8.1685    1.8390   11.1599 C   0  0  0  0  0  0  0  0  0  0  0  0
    7.8177    1.3112    9.9033 C   0  0  0  0  0  0  0  0  0  0  0  0
    6.9580    0.2084    9.7778 C   0  0  0  0  0  0  0  0  0  0  0  0
    6.7057   -0.3007    8.5044 N   0  0  0  0  0  0  0  0  0  0  0  0
    5.5068   -1.1048    8.2816 C   0  0  0  0  0  0  0  0  0  0  0  0
    8.8252   -6.9159    8.7242 F   0  0  0  0  0  0  0  0  0  0  0  0
    7.5682   -3.6116    7.9301 C   0  0  0  0  0  0  0  0  0  0  0  0
    8.3040   -4.6278    8.5432 C   0  0  0  0  0  0  0  0  0  0  0  0
    8.1078   -5.9423    8.1490 C   0  0  0  0  0  0  0  0  0  0  0  0
    7.1847   -6.2579    7.1593 C   0  0  0  0  0  0  0  0  0  0  0  0
    6.4368   -5.2394    6.5557 C   0  0  0  0  0  0  0  0  0  0  0  0
    6.6143   -3.9007    6.9383 C   0  0  0  0  0  0  0  0  0  0  0  0
    5.4411   -2.9090    5.0190 N   0  0  0  0  0  0  0  0  0  0  0  0
    5.8341   -2.8263    6.3045 C   0  0  0  0  0  0  0  0  0  0  0  0
    5.3826   -1.6049    6.8861 C   0  0  0  0  0  0  0  0  0  0  0  0
    4.7779   -0.9268    5.8550 C   0  0  0  0  0  0  0  0  0  0  0  0
    4.8154   -1.7382    4.7508 N   0  0  0  0  0  0  0  0  0  0  0  0
    3.6028   -2.1397    1.2458 C   0  0  0  0  0  0  0  0  0  0  0  0
    4.2469   -2.4103    2.4603 C   0  0  0  0  0  0  0  0  0  0  0  0
    4.2427   -1.4485    3.4799 C   0  0  0  0  0  0  0  0  0  0  0  0
    3.6230   -0.2073    3.2551 C   0  0  0  0  0  0  0  0  0  0  0  0
    2.9764    0.0572    2.0488 C   0  0  0  0  0  0  0  0  0  0  0  0
    2.9683   -0.9079    1.0395 C   0  0  0  0  0  0  0  0  0  0  0  0
    6.4127   -0.5041   13.2994 F   0  0  0  0  0  0  0  0  0  0  0  0
    5.9236   -1.2518   10.8919 H   0  0  0  0  0  0  0  0  0  0  0  0
    7.9074    1.5972   13.2447 H   0  0  0  0  0  0  0  0  0  0  0  0
    8.2030    1.7468    9.0508 H   0  0  0  0  0  0  0  0  0  0  0  0
    7.3286   -0.1201    7.7638 H   0  0  0  0  0  0  0  0  0  0  0  0
    4.6495   -0.5047    8.5046 H   0  0  0  0  0  0  0  0  0  0  0  0
    5.5775   -1.9612    8.9193 H   0  0  0  0  0  0  0  0  0  0  0  0
    7.7274   -2.6311    8.2099 H   0  0  0  0  0  0  0  0  0  0  0  0
    8.9875   -4.4024    9.2829 H   0  0  0  0  0  0  0  0  0  0  0  0
    7.0508   -7.2395    6.8702 H   0  0  0  0  0  0  0  0  0  0  0  0
    5.7492   -5.4752    5.8232 H   0  0  0  0  0  0  0  0  0  0  0  0
    4.3701    0.0200    5.9033 H   0  0  0  0  0  0  0  0  0  0  0  0
    3.5957   -2.8519    0.4989 H   0  0  0  0  0  0  0  0  0  0  0  0
    4.7229   -3.3146    2.6036 H   0  0  0  0  0  0  0  0  0  0  0  0
    3.6468    0.5159    3.9908 H   0  0  0  0  0  0  0  0  0  0  0  0
    2.5051    0.9635    1.9020 H   0  0  0  0  0  0  0  0  0  0  0  0
  3  1  1  0  0  0  0
  3  2  2  0  0  0  0
  7  4  1  0  0  0  0
  7  5  1  0  0  0  0
  7  6  1  0  0  0  0
  8  9  2  0  0  0  0
  8 35  1  0  0  0  0
  9 10  1  0  0  0  0
  9 34  1  0  0  0  0
 10 11  2  0  0  0  0
 10 36  1  0  0  0  0
 11  7  1  0  0  0  0
 11 12  1  0  0  0  0
 12 13  2  0  0  0  0
 12 37  1  0  0  0  0
 13  8  1  0  0  0  0
 14 13  1  0  0  0  0
 14 38  1  0  0  0  0
 15 14  1  0  0  0  0
 15 39  1  0  0  0  0
 15 40  1  0  0  0  0
 17 18  2  0  0  0  0
 17 41  1  0  0  0  0
 18 19  1  0  0  0  0
 18 42  1  0  0  0  0
 19 16  1  0  0  0  0
 19 20  2  0  0  0  0
 20 21  1  0  0  0  0
 20 43  1  0  0  0  0
 21 22  2  0  0  0  0
 21 44  1  0  0  0  0
 22 17  1  0  0  0  0
 23 27  1  0  0  0  0
 24 22  1  0  0  0  0
 24 23  2  0  0  0  0
 25 15  1  0  0  0  0
 25 24  1  0  0  0  0
 26 25  2  0  0  0  0
 26 27  1  0  0  0  0
 26 45  1  0  0  0  0
 28 33  2  0  0  0  0
 28 46  1  0  0  0  0
 29 28  1  0  0  0  0
 29 47  1  0  0  0  0
 30 27  1  0  0  0  0
 30 29  2  0  0  0  0
 31 30  1  0  0  0  0
 31 48  1  0  0  0  0
 32 31  2  0  0  0  0
 32 49  1  0  0  0  0
 33  3  1  0  0  0  0
 33 32  1  0  0  0  0
M  CHG  1   1  -1
M  END
>  <Energy>
84.0618

> <PREPARED_BY>
siam chowdhury
Computational and Medicinal Chemistry
[Dr. Alam's Research Team] www.alamresearch.org
Arkansas State University

$$$$
