# siam chowdhury
# Computational and Medicinal Chemistry
# [Dr. Alam's Research Team] www.alamresearch.org
# Arkansas State University
# 25sa23 all docked poses (7L00 FabK)
@<TRIPOS>MOLECULE
25sa23_out
 49 52 0 0 0
SMALL
GASTEIGER

@<TRIPOS>ATOM
      1 O          15.4480   18.2800   32.9450 O.co2   1  UNL1       -0.5446
      2 C          14.4500   18.8760   33.3170 C.2     1  UNL1        0.0717
      3 O          14.3130   19.3920   34.5540 O.co2   1  UNL1       -0.5446
      4 C          13.2710   19.0870   32.4430 C.ar    1  UNL1       -0.0026
      5 C          13.0480   20.3560   31.8900 C.ar    1  UNL1       -0.0509
      6 C          11.9090   20.5980   31.1120 C.ar    1  UNL1       -0.0357
      7 C          10.9800   19.5690   30.8970 C.ar    1  UNL1        0.0654
      8 N           9.7740   19.8210   30.1830 N.ar    1  UNL1       -0.2390
      9 C           8.5210   19.4040   30.5480 C.ar    1  UNL1        0.0365
     10 C           7.6330   19.9120   29.6290 C.ar    1  UNL1        0.0153
     11 C           6.1560   19.7450   29.6850 C.3     1  UNL1        0.0379
     12 N           5.6540   18.7270   28.7650 N.pl3   1  UNL1       -0.3395
     13 C           4.9480   17.6380   29.2750 C.ar    1  UNL1        0.0306
     14 C           3.5540   17.5460   29.2450 C.ar    1  UNL1       -0.0056
     15 C           2.9090   16.4030   29.6950 C.ar    1  UNL1        0.1257
     16 F           1.5730   16.3500   29.6640 F       1  UNL1       -0.2054
     17 C           3.6240   15.3130   30.1720 C.ar    1  UNL1       -0.0147
     18 C           5.0210   15.3540   30.1780 C.ar    1  UNL1        0.0593
     19 C           5.8310   14.1850   30.6740 C.3     1  UNL1        0.4176
     20 F           5.6090   13.8850   31.9840 F       1  UNL1       -0.1659
     21 F           5.5790   13.0420   29.9790 F       1  UNL1       -0.1659
     22 F           7.1710   14.4030   30.5640 F       1  UNL1       -0.1659
     23 C           5.6680   16.5140   29.7110 C.ar    1  UNL1       -0.0290
     24 C           8.4460   20.5890   28.6730 C.ar    1  UNL1        0.0978
     25 C           8.0230   21.2570   27.4320 C.ar    1  UNL1        0.0026
     26 C           7.8200   22.6480   27.3930 C.ar    1  UNL1       -0.0498
     27 C           7.4290   23.2880   26.2150 C.ar    1  UNL1       -0.0258
     28 C           7.2140   22.5370   25.0720 C.ar    1  UNL1        0.1234
     29 F           6.8220   23.1480   23.9460 F       1  UNL1       -0.2055
     30 C           7.3890   21.1580   25.0830 C.ar    1  UNL1       -0.0258
     31 C           7.7950   20.5190   26.2610 C.ar    1  UNL1       -0.0498
     32 N           9.7380   20.5620   29.0500 N.ar    1  UNL1       -0.1661
     33 C          11.2260   18.2950   31.4360 C.ar    1  UNL1       -0.0357
     34 C          12.3550   18.0580   32.2170 C.ar    1  UNL1       -0.0509
     35 H          13.7712   21.1654   32.0681 H       1  UNL1        0.0625
     36 H          11.7433   21.5919   30.6708 H       1  UNL1        0.0639
     37 H           8.2711   18.7776   31.4170 H       1  UNL1        0.0834
     38 H           5.8757   19.4585   30.7094 H       1  UNL1        0.0512
     39 H           5.7082   20.7040   29.3854 H       1  UNL1        0.0512
     40 H           5.8120   18.8080   27.7980 H       1  UNL1        0.1464
     41 H           2.9614   18.3891   28.8603 H       1  UNL1        0.0665
     42 H           3.0946   14.4229   30.5428 H       1  UNL1        0.0652
     43 H           6.7674   16.5405   29.6870 H       1  UNL1        0.0641
     44 H           7.9718   23.2422   28.3062 H       1  UNL1        0.0625
     45 H           7.2930   24.3794   26.1954 H       1  UNL1        0.0646
     46 H           7.2093   20.5712   24.1701 H       1  UNL1        0.0646
     47 H           7.9365   19.4282   26.2682 H       1  UNL1        0.0625
     48 H          10.5192   17.4755   31.2391 H       1  UNL1        0.0639
     49 H          12.5242   17.0630   32.6543 H       1  UNL1        0.0625
@<TRIPOS>UNITY_ATOM_ATTR
3 1
charge -1
@<TRIPOS>BOND
     1     1     2   ar
     2     2     3   ar
     3     2     4    1
     4     4     5   ar
     5     5     6   ar
     6     6     7   ar
     7     7     8    1
     8     8     9   ar
     9     9    10   ar
    10    10    11    1
    11    11    12    1
    12    12    13    1
    13    13    14   ar
    14    14    15   ar
    15    15    16    1
    16    15    17   ar
    17    17    18   ar
    18    18    19    1
    19    19    20    1
    20    19    21    1
    21    19    22    1
    22    18    23   ar
    23    10    24   ar
    24    24    25    1
    25    25    26   ar
    26    26    27   ar
    27    27    28   ar
    28    28    29    1
    29    28    30   ar
    30    30    31   ar
    31    24    32   ar
    32     7    33   ar
    33    33    34   ar
    34    34     4   ar
    35    32     8   ar
    36    23    13   ar
    37    31    25   ar
    38     5    35    1
    39     6    36    1
    40     9    37    1
    41    11    38    1
    42    11    39    1
    43    12    40    1
    44    14    41    1
    45    17    42    1
    46    23    43    1
    47    26    44    1
    48    27    45    1
    49    30    46    1
    50    31    47    1
    51    33    48    1
    52    34    49    1
@<TRIPOS>MOLECULE
25sa23_out
 49 52 0 0 0
SMALL
GASTEIGER

@<TRIPOS>ATOM
      1 O           5.2040   14.0930   32.3850 O.co2   1  UNL1       -0.5446
      2 C           6.1570   14.1480   31.6240 C.2     1  UNL1        0.0717
      3 O           6.0740   13.8590   30.3100 O.co2   1  UNL1       -0.5446
      4 C           7.5180   14.5290   32.0720 C.ar    1  UNL1       -0.0026
      5 C           7.8130   14.5290   33.4420 C.ar    1  UNL1       -0.0509
      6 C           9.0720   14.9440   33.8950 C.ar    1  UNL1       -0.0357
      7 C          10.0360   15.3770   32.9730 C.ar    1  UNL1        0.0654
      8 N          11.2880   15.8850   33.4210 N.ar    1  UNL1       -0.2390
      9 C          12.0620   16.8080   32.7680 C.ar    1  UNL1        0.0365
     10 C          13.1480   17.0750   33.5670 C.ar    1  UNL1        0.0153
     11 C          14.2140   18.0670   33.2580 C.3     1  UNL1        0.0379
     12 N          14.8990   18.5680   34.4460 N.pl3   1  UNL1       -0.3395
     13 C          14.4700   19.7610   35.0280 C.ar    1  UNL1        0.0306
     14 C          14.1350   20.8980   34.2880 C.ar    1  UNL1       -0.0056
     15 C          13.6380   22.0310   34.9150 C.ar    1  UNL1        0.1257
     16 F          13.3380   23.1080   34.1800 F       1  UNL1       -0.2054
     17 C          13.4420   22.0670   36.2880 C.ar    1  UNL1       -0.0147
     18 C          13.7270   20.9330   37.0550 C.ar    1  UNL1        0.0593
     19 C          13.5130   20.9290   38.5460 C.3     1  UNL1        0.4176
     20 F          13.4980   19.6810   39.0900 F       1  UNL1       -0.1659
     21 F          14.4760   21.6190   39.2150 F       1  UNL1       -0.1659
     22 F          12.3280   21.5020   38.8970 F       1  UNL1       -0.1659
     23 C          14.2220   19.7840   36.4100 C.ar    1  UNL1       -0.0290
     24 C          12.9980   16.2070   34.6880 C.ar    1  UNL1        0.0978
     25 C          13.9170   16.0210   35.8220 C.ar    1  UNL1        0.0026
     26 C          13.6020   16.5240   37.0970 C.ar    1  UNL1       -0.0498
     27 C          14.4640   16.3420   38.1800 C.ar    1  UNL1       -0.0258
     28 C          15.6640   15.6750   37.9890 C.ar    1  UNL1        0.1234
     29 F          16.5000   15.5140   39.0220 F       1  UNL1       -0.2055
     30 C          16.0120   15.1810   36.7370 C.ar    1  UNL1       -0.0258
     31 C          15.1390   15.3510   35.6560 C.ar    1  UNL1       -0.0498
     32 N          11.8410   15.5250   34.6040 N.ar    1  UNL1       -0.1661
     33 C           9.7380   15.3520   31.6000 C.ar    1  UNL1       -0.0357
     34 C           8.4820   14.9460   31.1520 C.ar    1  UNL1       -0.0509
     35 H           7.0519   14.2014   34.1655 H       1  UNL1        0.0625
     36 H           9.3037   14.9303   34.9702 H       1  UNL1        0.0639
     37 H          11.8526   17.2537   31.7844 H       1  UNL1        0.0834
     38 H          14.9566   17.5886   32.6025 H       1  UNL1        0.0512
     39 H          13.7280   18.9276   32.7751 H       1  UNL1        0.0512
     40 H          15.6550   18.0710   34.8330 H       1  UNL1        0.1464
     41 H          14.2669   20.8945   33.1959 H       1  UNL1        0.0665
     42 H          13.0651   22.9812   36.7699 H       1  UNL1        0.0652
     43 H          14.4199   18.8798   37.0044 H       1  UNL1        0.0641
     44 H          12.6590   17.0710   37.2437 H       1  UNL1        0.0625
     45 H          14.1935   16.7242   39.1753 H       1  UNL1        0.0646
     46 H          16.9697   14.6585   36.5963 H       1  UNL1        0.0646
     47 H          15.4134   14.9556   34.6669 H       1  UNL1        0.0625
     48 H          10.5038   15.6560   30.8712 H       1  UNL1        0.0639
     49 H           8.2509   14.9541   30.0766 H       1  UNL1        0.0625
@<TRIPOS>UNITY_ATOM_ATTR
3 1
charge -1
@<TRIPOS>BOND
     1     1     2   ar
     2     2     3   ar
     3     2     4    1
     4     4     5   ar
     5     5     6   ar
     6     6     7   ar
     7     7     8    1
     8     8     9   ar
     9     9    10   ar
    10    10    11    1
    11    11    12    1
    12    12    13    1
    13    13    14   ar
    14    14    15   ar
    15    15    16    1
    16    15    17   ar
    17    17    18   ar
    18    18    19    1
    19    19    20    1
    20    19    21    1
    21    19    22    1
    22    18    23   ar
    23    10    24   ar
    24    24    25    1
    25    25    26   ar
    26    26    27   ar
    27    27    28   ar
    28    28    29    1
    29    28    30   ar
    30    30    31   ar
    31    24    32   ar
    32     7    33   ar
    33    33    34   ar
    34    34     4   ar
    35    32     8   ar
    36    23    13   ar
    37    31    25   ar
    38     5    35    1
    39     6    36    1
    40     9    37    1
    41    11    38    1
    42    11    39    1
    43    12    40    1
    44    14    41    1
    45    17    42    1
    46    23    43    1
    47    26    44    1
    48    27    45    1
    49    30    46    1
    50    31    47    1
    51    33    48    1
    52    34    49    1
@<TRIPOS>MOLECULE
25sa23_out
 49 52 0 0 0
SMALL
GASTEIGER

@<TRIPOS>ATOM
      1 O          15.4130   18.2670   32.9260 O.co2   1  UNL1       -0.5446
      2 C          14.5530   19.0870   33.2030 C.2     1  UNL1        0.0717
      3 O          14.6060   19.8760   34.2950 O.co2   1  UNL1       -0.5446
      4 C          13.3460   19.2960   32.3680 C.ar    1  UNL1       -0.0026
      5 C          13.0830   20.5710   31.8510 C.ar    1  UNL1       -0.0509
      6 C          11.9180   20.8090   31.1110 C.ar    1  UNL1       -0.0357
      7 C          11.0030   19.7690   30.9000 C.ar    1  UNL1        0.0654
      8 N           9.7720   20.0130   30.2270 N.ar    1  UNL1       -0.2390
      9 C           8.5230   19.6960   30.6920 C.ar    1  UNL1        0.0365
     10 C           7.6110   20.1600   29.7750 C.ar    1  UNL1        0.0153
     11 C           6.1320   20.0740   29.9200 C.3     1  UNL1        0.0379
     12 N           5.4360   19.8960   28.6490 N.pl3   1  UNL1       -0.3395
     13 C           4.9980   18.6230   28.2840 C.ar    1  UNL1        0.0306
     14 C           5.3140   18.0240   27.0620 C.ar    1  UNL1       -0.0056
     15 C           4.9170   16.7240   26.7860 C.ar    1  UNL1        0.1257
     16 F           5.2230   16.1830   25.6020 F       1  UNL1       -0.2054
     17 C           4.2130   15.9730   27.7170 C.ar    1  UNL1       -0.0147
     18 C           3.9160   16.5250   28.9660 C.ar    1  UNL1        0.0593
     19 C           3.1680   15.7350   30.0080 C.3     1  UNL1        0.4176
     20 F           2.9040   16.4420   31.1410 F       1  UNL1       -0.1659
     21 F           1.9660   15.2840   29.5580 F       1  UNL1       -0.1659
     22 F           3.8570   14.6310   30.4100 F       1  UNL1       -0.1659
     23 C           4.3310   17.8420   29.2420 C.ar    1  UNL1       -0.0290
     24 C           8.4000   20.7040   28.7190 C.ar    1  UNL1        0.0978
     25 C           7.9400   21.2730   27.4420 C.ar    1  UNL1        0.0026
     26 C           7.4430   22.5870   27.3750 C.ar    1  UNL1       -0.0498
     27 C           7.0160   23.1370   26.1650 C.ar    1  UNL1       -0.0258
     28 C           7.0590   22.3660   25.0140 C.ar    1  UNL1        0.1234
     29 F           6.6340   22.8860   23.8560 F       1  UNL1       -0.2055
     30 C           7.5290   21.0580   25.0510 C.ar    1  UNL1       -0.0258
     31 C           7.9710   20.5130   26.2630 C.ar    1  UNL1       -0.0498
     32 N           9.7080   20.6460   29.0310 N.ar    1  UNL1       -0.1661
     33 C          11.2860   18.4880   31.4030 C.ar    1  UNL1       -0.0357
     34 C          12.4420   18.2550   32.1460 C.ar    1  UNL1       -0.0509
     35 H          13.7957   21.3902   32.0273 H       1  UNL1        0.0625
     36 H          11.7220   21.8090   30.6968 H       1  UNL1        0.0639
     37 H           8.2924   19.1667   31.6283 H       1  UNL1        0.0834
     38 H           5.8942   19.2197   30.5708 H       1  UNL1        0.0512
     39 H           5.7907   21.0285   30.3472 H       1  UNL1        0.0512
     40 H           5.2770   20.6650   28.0560 H       1  UNL1        0.1464
     41 H           5.8840   18.5897   26.3103 H       1  UNL1        0.0665
     42 H           3.8909   14.9498   27.4733 H       1  UNL1        0.0652
     43 H           4.1274   18.2706   30.2344 H       1  UNL1        0.0641
     44 H           7.3898   23.1920   28.2922 H       1  UNL1        0.0625
     45 H           6.6487   24.1731   26.1254 H       1  UNL1        0.0646
     46 H           7.5536   20.4538   24.1321 H       1  UNL1        0.0646
     47 H           8.3460   19.4793   26.2909 H       1  UNL1        0.0625
     48 H          10.5880   17.6604   31.2084 H       1  UNL1        0.0639
     49 H          12.6417   17.2541   32.5563 H       1  UNL1        0.0625
@<TRIPOS>UNITY_ATOM_ATTR
3 1
charge -1
@<TRIPOS>BOND
     1     1     2   ar
     2     2     3   ar
     3     2     4    1
     4     4     5   ar
     5     5     6   ar
     6     6     7   ar
     7     7     8    1
     8     8     9   ar
     9     9    10   ar
    10    10    11    1
    11    11    12    1
    12    12    13    1
    13    13    14   ar
    14    14    15   ar
    15    15    16    1
    16    15    17   ar
    17    17    18   ar
    18    18    19    1
    19    19    20    1
    20    19    21    1
    21    19    22    1
    22    18    23   ar
    23    10    24   ar
    24    24    25    1
    25    25    26   ar
    26    26    27   ar
    27    27    28   ar
    28    28    29    1
    29    28    30   ar
    30    30    31   ar
    31    24    32   ar
    32     7    33   ar
    33    33    34   ar
    34    34     4   ar
    35    32     8   ar
    36    23    13   ar
    37    31    25   ar
    38     5    35    1
    39     6    36    1
    40     9    37    1
    41    11    38    1
    42    11    39    1
    43    12    40    1
    44    14    41    1
    45    17    42    1
    46    23    43    1
    47    26    44    1
    48    27    45    1
    49    30    46    1
    50    31    47    1
    51    33    48    1
    52    34    49    1
@<TRIPOS>MOLECULE
25sa23_out
 49 52 0 0 0
SMALL
GASTEIGER

@<TRIPOS>ATOM
      1 O          15.3520   18.1330   33.4040 O.co2   1  UNL1       -0.5446
      2 C          14.7930   19.2180   33.3780 C.2     1  UNL1        0.0717
      3 O          15.2380   20.2970   34.0520 O.co2   1  UNL1       -0.5446
      4 C          13.5510   19.4610   32.6070 C.ar    1  UNL1       -0.0026
      5 C          12.7240   18.3780   32.2820 C.ar    1  UNL1       -0.0509
      6 C          11.5770   18.5720   31.5020 C.ar    1  UNL1       -0.0357
      7 C          11.2640   19.8540   31.0300 C.ar    1  UNL1        0.0654
      8 N          10.1530   20.0560   30.1630 N.ar    1  UNL1       -0.2390
      9 C          10.1260   20.8750   29.0650 C.ar    1  UNL1        0.0365
     10 C           8.8950   20.7290   28.4710 C.ar    1  UNL1        0.0153
     11 C           8.4680   21.4000   27.2140 C.3     1  UNL1        0.0379
     12 N           7.3910   22.3670   27.4110 N.pl3   1  UNL1       -0.3395
     13 C           6.1030   22.0500   26.9790 C.ar    1  UNL1        0.0306
     14 C           5.8380   21.4050   25.7690 C.ar    1  UNL1       -0.0056
     15 C           4.5420   21.0440   25.4280 C.ar    1  UNL1        0.1257
     16 F           4.3180   20.4380   24.2560 F       1  UNL1       -0.2054
     17 C           3.4760   21.2940   26.2810 C.ar    1  UNL1       -0.0147
     18 C           3.7110   21.9010   27.5180 C.ar    1  UNL1        0.0593
     19 C           2.5820   22.1750   28.4760 C.3     1  UNL1        0.4176
     20 F           2.9390   22.0590   29.7850 F       1  UNL1       -0.1659
     21 F           2.0690   23.4270   28.3360 F       1  UNL1       -0.1659
     22 F           1.5370   21.3190   28.2980 F       1  UNL1       -0.1659
     23 C           5.0290   22.2560   27.8610 C.ar    1  UNL1       -0.0290
     24 C           8.1840   19.8330   29.3220 C.ar    1  UNL1        0.0978
     25 C           6.7870   19.3830   29.2030 C.ar    1  UNL1        0.0026
     26 C           6.3500   18.6780   28.0680 C.ar    1  UNL1       -0.0498
     27 C           5.0290   18.2400   27.9530 C.ar    1  UNL1       -0.0258
     28 C           4.1280   18.5260   28.9660 C.ar    1  UNL1        0.1234
     29 F           2.8570   18.1200   28.8510 F       1  UNL1       -0.2055
     30 C           4.5260   19.2350   30.0930 C.ar    1  UNL1       -0.0258
     31 C           5.8540   19.6610   30.2130 C.ar    1  UNL1       -0.0498
     32 N           8.9780   19.4000   30.3190 N.ar    1  UNL1       -0.1661
     33 C          12.0870   20.9380   31.3810 C.ar    1  UNL1       -0.0357
     34 C          13.2320   20.7420   32.1510 C.ar    1  UNL1       -0.0509
     35 H          12.9769   17.3696   32.6414 H       1  UNL1        0.0625
     36 H          10.9237   17.7206   31.2605 H       1  UNL1        0.0639
     37 H          10.9405   21.5297   28.7216 H       1  UNL1        0.0834
     38 H           9.3350   21.9255   26.7871 H       1  UNL1        0.0512
     39 H           8.0843   20.6182   26.5420 H       1  UNL1        0.0512
     40 H           7.5720   23.2330   27.8440 H       1  UNL1        0.1464
     41 H           6.6649   21.1808   25.0791 H       1  UNL1        0.0665
     42 H           2.4534   21.0164   25.9856 H       1  UNL1        0.0652
     43 H           5.2233   22.7066   28.8455 H       1  UNL1        0.0641
     44 H           7.0614   18.4676   27.2558 H       1  UNL1        0.0625
     45 H           4.7069   17.6735   27.0668 H       1  UNL1        0.0646
     46 H           3.8000   19.4607   30.8880 H       1  UNL1        0.0646
     47 H           6.1688   20.2188   31.1073 H       1  UNL1        0.0625
     48 H          11.8246   21.9518   31.0444 H       1  UNL1        0.0639
     49 H          13.8825   21.5937   32.3989 H       1  UNL1        0.0625
@<TRIPOS>UNITY_ATOM_ATTR
3 1
charge -1
@<TRIPOS>BOND
     1     1     2   ar
     2     2     3   ar
     3     2     4    1
     4     4     5   ar
     5     5     6   ar
     6     6     7   ar
     7     7     8    1
     8     8     9   ar
     9     9    10   ar
    10    10    11    1
    11    11    12    1
    12    12    13    1
    13    13    14   ar
    14    14    15   ar
    15    15    16    1
    16    15    17   ar
    17    17    18   ar
    18    18    19    1
    19    19    20    1
    20    19    21    1
    21    19    22    1
    22    18    23   ar
    23    10    24   ar
    24    24    25    1
    25    25    26   ar
    26    26    27   ar
    27    27    28   ar
    28    28    29    1
    29    28    30   ar
    30    30    31   ar
    31    24    32   ar
    32     7    33   ar
    33    33    34   ar
    34    34     4   ar
    35    32     8   ar
    36    23    13   ar
    37    31    25   ar
    38     5    35    1
    39     6    36    1
    40     9    37    1
    41    11    38    1
    42    11    39    1
    43    12    40    1
    44    14    41    1
    45    17    42    1
    46    23    43    1
    47    26    44    1
    48    27    45    1
    49    30    46    1
    50    31    47    1
    51    33    48    1
    52    34    49    1
@<TRIPOS>MOLECULE
25sa23_out
 49 52 0 0 0
SMALL
GASTEIGER

@<TRIPOS>ATOM
      1 O          15.2370   17.6530   33.7850 O.co2   1  UNL1       -0.5446
      2 C          14.6060   18.6970   33.8150 C.2     1  UNL1        0.0717
      3 O          14.8150   19.6640   34.7300 O.co2   1  UNL1       -0.5446
      4 C          13.5270   19.0090   32.8470 C.ar    1  UNL1       -0.0026
      5 C          13.3950   20.3190   32.3680 C.ar    1  UNL1       -0.0509
      6 C          12.3470   20.6530   31.5010 C.ar    1  UNL1       -0.0357
      7 C          11.4170   19.6740   31.1220 C.ar    1  UNL1        0.0654
      8 N          10.2960   20.0150   30.3130 N.ar    1  UNL1       -0.2390
      9 C          10.2640   20.9900   29.3500 C.ar    1  UNL1        0.0365
     10 C           9.0230   20.9480   28.7610 C.ar    1  UNL1        0.0153
     11 C           8.5870   21.8040   27.6250 C.3     1  UNL1        0.0379
     12 N           7.7790   22.9480   28.0400 N.pl3   1  UNL1       -0.3395
     13 C           6.4160   22.7680   28.2790 C.ar    1  UNL1        0.0306
     14 C           5.7860   23.1700   29.4590 C.ar    1  UNL1       -0.0056
     15 C           4.4130   23.0380   29.6090 C.ar    1  UNL1        0.1257
     16 F           3.8390   23.4210   30.7560 F       1  UNL1       -0.2054
     17 C           3.6230   22.5210   28.5910 C.ar    1  UNL1       -0.0147
     18 C           4.2150   22.1470   27.3820 C.ar    1  UNL1        0.0593
     19 C           3.3890   21.5970   26.2490 C.3     1  UNL1        0.4176
     20 F           2.1350   21.2210   26.6230 F       1  UNL1       -0.1659
     21 F           3.2260   22.4920   25.2370 F       1  UNL1       -0.1659
     22 F           3.9560   20.4930   25.6870 F       1  UNL1       -0.1659
     23 C           5.6070   22.2940   27.2340 C.ar    1  UNL1       -0.0290
     24 C           8.3120   19.9430   29.4800 C.ar    1  UNL1        0.0978
     25 C           6.9090   19.5310   29.3180 C.ar    1  UNL1        0.0026
     26 C           6.4570   18.9630   28.1140 C.ar    1  UNL1       -0.0498
     27 C           5.1290   18.5610   27.9580 C.ar    1  UNL1       -0.0258
     28 C           4.2350   18.7480   29.0000 C.ar    1  UNL1        0.1234
     29 F           2.9570   18.3780   28.8460 F       1  UNL1       -0.2055
     30 C           4.6470   19.3220   30.1960 C.ar    1  UNL1       -0.0258
     31 C           5.9830   19.7110   30.3570 C.ar    1  UNL1       -0.0498
     32 N           9.1150   19.3560   30.3880 N.ar    1  UNL1       -0.1661
     33 C          11.5720   18.3580   31.5890 C.ar    1  UNL1       -0.0357
     34 C          12.6110   18.0290   32.4580 C.ar    1  UNL1       -0.0509
     35 H          14.1182   21.0891   32.6744 H       1  UNL1        0.0625
     36 H          12.2536   21.6801   31.1185 H       1  UNL1        0.0639
     37 H          11.0820   21.6799   29.0952 H       1  UNL1        0.0834
     38 H           9.4820   22.1785   27.1065 H       1  UNL1        0.0512
     39 H           7.9587   21.1817   26.9708 H       1  UNL1        0.0512
     40 H           8.1900   23.8350   28.1490 H       1  UNL1        0.1464
     41 H           6.3846   23.5957   30.2779 H       1  UNL1        0.0665
     42 H           2.5385   22.4066   28.7353 H       1  UNL1        0.0652
     43 H           6.0737   22.0303   26.2735 H       1  UNL1        0.0641
     44 H           7.1622   18.8330   27.2799 H       1  UNL1        0.0625
     45 H           4.7955   18.1001   27.0165 H       1  UNL1        0.0646
     46 H           3.9266   19.4706   31.0139 H       1  UNL1        0.0646
     47 H           6.3091   20.1615   31.3061 H       1  UNL1        0.0625
     48 H          10.8659   17.5790   31.2654 H       1  UNL1        0.0639
     49 H          12.7092   17.0008   32.8362 H       1  UNL1        0.0625
@<TRIPOS>UNITY_ATOM_ATTR
3 1
charge -1
@<TRIPOS>BOND
     1     1     2   ar
     2     2     3   ar
     3     2     4    1
     4     4     5   ar
     5     5     6   ar
     6     6     7   ar
     7     7     8    1
     8     8     9   ar
     9     9    10   ar
    10    10    11    1
    11    11    12    1
    12    12    13    1
    13    13    14   ar
    14    14    15   ar
    15    15    16    1
    16    15    17   ar
    17    17    18   ar
    18    18    19    1
    19    19    20    1
    20    19    21    1
    21    19    22    1
    22    18    23   ar
    23    10    24   ar
    24    24    25    1
    25    25    26   ar
    26    26    27   ar
    27    27    28   ar
    28    28    29    1
    29    28    30   ar
    30    30    31   ar
    31    24    32   ar
    32     7    33   ar
    33    33    34   ar
    34    34     4   ar
    35    32     8   ar
    36    23    13   ar
    37    31    25   ar
    38     5    35    1
    39     6    36    1
    40     9    37    1
    41    11    38    1
    42    11    39    1
    43    12    40    1
    44    14    41    1
    45    17    42    1
    46    23    43    1
    47    26    44    1
    48    27    45    1
    49    30    46    1
    50    31    47    1
    51    33    48    1
    52    34    49    1
@<TRIPOS>MOLECULE
25sa23_out
 49 52 0 0 0
SMALL
GASTEIGER

@<TRIPOS>ATOM
      1 O          15.3550   18.1900   33.1490 O.co2   1  UNL1       -0.5446
      2 C          14.6620   19.1930   33.1890 C.2     1  UNL1        0.0717
      3 O          14.9270   20.2480   33.9850 O.co2   1  UNL1       -0.5446
      4 C          13.4390   19.3540   32.3660 C.ar    1  UNL1       -0.0026
      5 C          13.1170   20.6190   31.8580 C.ar    1  UNL1       -0.0509
      6 C          11.9360   20.8100   31.1300 C.ar    1  UNL1       -0.0357
      7 C          11.0630   19.7320   30.9220 C.ar    1  UNL1        0.0654
      8 N           9.8170   19.9270   30.2620 N.ar    1  UNL1       -0.2390
      9 C           8.5990   19.4640   30.6870 C.ar    1  UNL1        0.0365
     10 C           7.6510   19.9260   29.8060 C.ar    1  UNL1        0.0153
     11 C           6.1860   19.6990   29.9300 C.3     1  UNL1        0.0379
     12 N           5.6470   18.8170   28.8990 N.pl3   1  UNL1       -0.3395
     13 C           5.1470   17.5680   29.2650 C.ar    1  UNL1        0.0306
     14 C           5.9580   16.5040   29.6670 C.ar    1  UNL1       -0.0056
     15 C           5.4000   15.3090   30.0960 C.ar    1  UNL1        0.1257
     16 F           6.2040   14.3040   30.4620 F       1  UNL1       -0.2054
     17 C           4.0240   15.1370   30.1560 C.ar    1  UNL1       -0.0147
     18 C           3.1820   16.1940   29.8010 C.ar    1  UNL1        0.0593
     19 C           1.6840   16.0510   29.8690 C.3     1  UNL1        0.4176
     20 F           1.2200   15.7700   31.1180 F       1  UNL1       -0.1659
     21 F           1.0320   17.1770   29.4710 F       1  UNL1       -0.1659
     22 F           1.2260   15.0490   29.0680 F       1  UNL1       -0.1659
     23 C           3.7560   17.4070   29.3760 C.ar    1  UNL1       -0.0290
     24 C           8.3910   20.6240   28.8080 C.ar    1  UNL1        0.0978
     25 C           7.8860   21.2600   27.5800 C.ar    1  UNL1        0.0026
     26 C           7.5170   22.6170   27.5700 C.ar    1  UNL1       -0.0498
     27 C           7.0470   23.2290   26.4060 C.ar    1  UNL1       -0.0258
     28 C           6.9180   22.4800   25.2480 C.ar    1  UNL1        0.1234
     29 F           6.4510   23.0610   24.1360 F       1  UNL1       -0.2055
     30 C           7.2580   21.1320   25.2310 C.ar    1  UNL1       -0.0258
     31 C           7.7440   20.5240   26.3950 C.ar    1  UNL1       -0.0498
     32 N           9.7000   20.6530   29.1250 N.ar    1  UNL1       -0.1661
     33 C          11.4060   18.4620   31.4160 C.ar    1  UNL1       -0.0357
     34 C          12.5790   18.2760   32.1470 C.ar    1  UNL1       -0.0509
     35 H          13.7956   21.4671   32.0318 H       1  UNL1        0.0625
     36 H          11.6937   21.8026   30.7225 H       1  UNL1        0.0639
     37 H           8.4141   18.8371   31.5717 H       1  UNL1        0.0834
     38 H           5.9848   19.2495   30.9136 H       1  UNL1        0.0512
     39 H           5.6946   20.6760   29.8112 H       1  UNL1        0.0512
     40 H           5.6370   19.1000   27.9560 H       1  UNL1        0.1464
     41 H           7.0521   16.6153   29.6430 H       1  UNL1        0.0665
     42 H           3.5995   14.1755   30.4807 H       1  UNL1        0.0652
     43 H           3.0976   18.2514   29.1241 H       1  UNL1        0.0641
     44 H           7.6000   23.2065   28.4950 H       1  UNL1        0.0625
     45 H           6.7816   24.2965   26.4088 H       1  UNL1        0.0646
     46 H           7.1457   20.5456   24.3071 H       1  UNL1        0.0646
     47 H           8.0171   19.4585   26.3796 H       1  UNL1        0.0625
     48 H          10.7425   17.6058   31.2242 H       1  UNL1        0.0639
     49 H          12.8260   17.2827   32.5500 H       1  UNL1        0.0625
@<TRIPOS>UNITY_ATOM_ATTR
3 1
charge -1
@<TRIPOS>BOND
     1     1     2   ar
     2     2     3   ar
     3     2     4    1
     4     4     5   ar
     5     5     6   ar
     6     6     7   ar
     7     7     8    1
     8     8     9   ar
     9     9    10   ar
    10    10    11    1
    11    11    12    1
    12    12    13    1
    13    13    14   ar
    14    14    15   ar
    15    15    16    1
    16    15    17   ar
    17    17    18   ar
    18    18    19    1
    19    19    20    1
    20    19    21    1
    21    19    22    1
    22    18    23   ar
    23    10    24   ar
    24    24    25    1
    25    25    26   ar
    26    26    27   ar
    27    27    28   ar
    28    28    29    1
    29    28    30   ar
    30    30    31   ar
    31    24    32   ar
    32     7    33   ar
    33    33    34   ar
    34    34     4   ar
    35    32     8   ar
    36    23    13   ar
    37    31    25   ar
    38     5    35    1
    39     6    36    1
    40     9    37    1
    41    11    38    1
    42    11    39    1
    43    12    40    1
    44    14    41    1
    45    17    42    1
    46    23    43    1
    47    26    44    1
    48    27    45    1
    49    30    46    1
    50    31    47    1
    51    33    48    1
    52    34    49    1
@<TRIPOS>MOLECULE
25sa23_out
 49 52 0 0 0
SMALL
GASTEIGER

@<TRIPOS>ATOM
      1 O          15.9620   22.4450   32.2770 O.co2   1  UNL1       -0.5446
      2 C          15.4340   21.7810   31.4000 C.2     1  UNL1        0.0717
      3 O          15.5180   22.0820   30.0890 O.co2   1  UNL1       -0.5446
      4 C          14.6290   20.5700   31.6880 C.ar    1  UNL1       -0.0026
      5 C          13.2470   20.5960   31.4590 C.ar    1  UNL1       -0.0509
      6 C          12.4550   19.4870   31.7800 C.ar    1  UNL1       -0.0357
      7 C          13.0460   18.3490   32.3480 C.ar    1  UNL1        0.0654
      8 N          12.2450   17.2480   32.7620 N.ar    1  UNL1       -0.2390
      9 C          12.5970   16.2990   33.6870 C.ar    1  UNL1        0.0365
     10 C          11.5210   15.4580   33.8450 C.ar    1  UNL1        0.0153
     11 C          11.4590   14.3200   34.8010 C.3     1  UNL1        0.0379
     12 N          11.7020   14.7130   36.1870 N.pl3   1  UNL1       -0.3395
     13 C          12.9740   15.1500   36.5570 C.ar    1  UNL1        0.0306
     14 C          14.1510   14.5190   36.1480 C.ar    1  UNL1       -0.0056
     15 C          15.3900   15.0440   36.4830 C.ar    1  UNL1        0.1257
     16 F          16.4990   14.4090   36.0870 F       1  UNL1       -0.2054
     17 C          15.5010   16.2180   37.2150 C.ar    1  UNL1       -0.0147
     18 C          14.3440   16.8990   37.6050 C.ar    1  UNL1        0.0593
     19 C          14.4250   18.1830   38.3880 C.3     1  UNL1        0.4176
     20 F          15.5520   18.9050   38.1340 F       1  UNL1       -0.1659
     21 F          13.3810   19.0170   38.1340 F       1  UNL1       -0.1659
     22 F          14.4160   17.9690   39.7330 F       1  UNL1       -0.1659
     23 C          13.0910   16.3640   37.2540 C.ar    1  UNL1       -0.0290
     24 C          10.5500   15.9290   32.9130 C.ar    1  UNL1        0.0978
     25 C           9.2310   15.3530   32.6070 C.ar    1  UNL1        0.0026
     26 C           8.3600   14.9540   33.6360 C.ar    1  UNL1       -0.0498
     27 C           7.1030   14.4170   33.3530 C.ar    1  UNL1       -0.0258
     28 C           6.7170   14.2510   32.0320 C.ar    1  UNL1        0.1234
     29 F           5.5190   13.7200   31.7580 F       1  UNL1       -0.2055
     30 C           7.5620   14.6190   30.9920 C.ar    1  UNL1       -0.0258
     31 C           8.8170   15.1720   31.2790 C.ar    1  UNL1       -0.0498
     32 N          10.9900   17.0430   32.2970 N.ar    1  UNL1       -0.1661
     33 C          14.4360   18.3240   32.5530 C.ar    1  UNL1       -0.0357
     34 C          15.2220   19.4320   32.2400 C.ar    1  UNL1       -0.0509
     35 H          12.7815   21.4930   31.0245 H       1  UNL1        0.0625
     36 H          11.3722   19.5082   31.5872 H       1  UNL1        0.0639
     37 H          13.5633   16.2243   34.2073 H       1  UNL1        0.0834
     38 H          10.4594   13.8653   34.7376 H       1  UNL1        0.0512
     39 H          12.2549   13.6150   34.5189 H       1  UNL1        0.0512
     40 H          10.9770   14.6710   36.8510 H       1  UNL1        0.1464
     41 H          14.0945   13.5952   35.5535 H       1  UNL1        0.0665
     42 H          16.4924   16.6099   37.4864 H       1  UNL1        0.0652
     43 H          12.1784   16.9111   37.5329 H       1  UNL1        0.0641
     44 H           8.6750   15.0671   34.6838 H       1  UNL1        0.0625
     45 H           6.4255   14.1284   34.1701 H       1  UNL1        0.0646
     46 H           7.2469   14.4767   29.9477 H       1  UNL1        0.0646
     47 H           9.4838   15.4669   30.4553 H       1  UNL1        0.0625
     48 H          14.9090   17.4203   32.9649 H       1  UNL1        0.0639
     49 H          16.3058   19.4102   32.4271 H       1  UNL1        0.0625
@<TRIPOS>UNITY_ATOM_ATTR
3 1
charge -1
@<TRIPOS>BOND
     1     1     2   ar
     2     2     3   ar
     3     2     4    1
     4     4     5   ar
     5     5     6   ar
     6     6     7   ar
     7     7     8    1
     8     8     9   ar
     9     9    10   ar
    10    10    11    1
    11    11    12    1
    12    12    13    1
    13    13    14   ar
    14    14    15   ar
    15    15    16    1
    16    15    17   ar
    17    17    18   ar
    18    18    19    1
    19    19    20    1
    20    19    21    1
    21    19    22    1
    22    18    23   ar
    23    10    24   ar
    24    24    25    1
    25    25    26   ar
    26    26    27   ar
    27    27    28   ar
    28    28    29    1
    29    28    30   ar
    30    30    31   ar
    31    24    32   ar
    32     7    33   ar
    33    33    34   ar
    34    34     4   ar
    35    32     8   ar
    36    23    13   ar
    37    31    25   ar
    38     5    35    1
    39     6    36    1
    40     9    37    1
    41    11    38    1
    42    11    39    1
    43    12    40    1
    44    14    41    1
    45    17    42    1
    46    23    43    1
    47    26    44    1
    48    27    45    1
    49    30    46    1
    50    31    47    1
    51    33    48    1
    52    34    49    1
@<TRIPOS>MOLECULE
25sa23_out
 49 52 0 0 0
SMALL
GASTEIGER

@<TRIPOS>ATOM
      1 O          15.6480   18.5090   33.1820 O.co2   1  UNL1       -0.5446
      2 C          14.8910   19.4470   33.3710 C.2     1  UNL1        0.0717
      3 O          15.1210   20.4130   34.2830 O.co2   1  UNL1       -0.5446
      4 C          13.6240   19.6180   32.6200 C.ar    1  UNL1       -0.0026
      5 C          12.8530   18.4890   32.3130 C.ar    1  UNL1       -0.0509
      6 C          11.6840   18.6160   31.5520 C.ar    1  UNL1       -0.0357
      7 C          11.2920   19.8780   31.0830 C.ar    1  UNL1        0.0654
      8 N          10.1560   20.0140   30.2360 N.ar    1  UNL1       -0.2390
      9 C           8.9490   19.3870   30.3990 C.ar    1  UNL1        0.0365
     10 C           8.1100   19.8420   29.4100 C.ar    1  UNL1        0.0153
     11 C           6.6810   19.4560   29.2560 C.3     1  UNL1        0.0379
     12 N           5.7800   20.6010   29.1550 N.pl3   1  UNL1       -0.3395
     13 C           5.1690   20.8810   27.9330 C.ar    1  UNL1        0.0306
     14 C           4.5660   22.1060   27.6400 C.ar    1  UNL1       -0.0056
     15 C           4.0430   22.3550   26.3790 C.ar    1  UNL1        0.1257
     16 F           3.4610   23.5340   26.1320 F       1  UNL1       -0.2054
     17 C           4.1170   21.4070   25.3680 C.ar    1  UNL1       -0.0147
     18 C           4.7500   20.1850   25.6150 C.ar    1  UNL1        0.0593
     19 C           4.8630   19.1380   24.5380 C.3     1  UNL1        0.4176
     20 F           6.0120   19.2240   23.8130 F       1  UNL1       -0.1659
     21 F           4.8260   17.8720   25.0340 F       1  UNL1       -0.1659
     22 F           3.8460   19.2160   23.6350 F       1  UNL1       -0.1659
     23 C           5.2860   19.9440   26.8930 C.ar    1  UNL1       -0.0290
     24 C           8.9160   20.7150   28.6220 C.ar    1  UNL1        0.0978
     25 C           8.5460   21.4230   27.3860 C.ar    1  UNL1        0.0026
     26 C           8.1190   22.7620   27.4220 C.ar    1  UNL1       -0.0498
     27 C           7.7770   23.4440   26.2520 C.ar    1  UNL1       -0.0258
     28 C           7.8370   22.7810   25.0370 C.ar    1  UNL1        0.1234
     29 F           7.4930   23.4280   23.9160 F       1  UNL1       -0.2055
     30 C           8.2390   21.4520   24.9700 C.ar    1  UNL1       -0.0258
     31 C           8.5960   20.7750   26.1430 C.ar    1  UNL1       -0.0498
     32 N          10.1420   20.8420   29.1630 N.ar    1  UNL1       -0.1661
     33 C          12.0590   21.0070   31.4170 C.ar    1  UNL1       -0.0357
     34 C          13.2260   20.8780   32.1670 C.ar    1  UNL1       -0.0509
     35 H          13.1675   17.4977   32.6715 H       1  UNL1        0.0625
     36 H          11.0755   17.7287   31.3230 H       1  UNL1        0.0639
     37 H           8.6972   18.6533   31.1790 H       1  UNL1        0.0834
     38 H           6.5795   18.8505   28.3433 H       1  UNL1        0.0512
     39 H           6.3960   18.8964   30.1591 H       1  UNL1        0.0512
     40 H           5.6070   21.1700   29.9390 H       1  UNL1        0.1464
     41 H           4.5049   22.8820   28.4172 H       1  UNL1        0.0665
     42 H           3.6809   21.6155   24.3799 H       1  UNL1        0.0652
     43 H           5.8109   18.9962   27.0831 H       1  UNL1        0.0641
     44 H           8.0530   23.2820   28.3891 H       1  UNL1        0.0625
     45 H           7.4630   24.4974   26.2949 H       1  UNL1        0.0646
     46 H           8.2766   20.9344   24.0001 H       1  UNL1        0.0646
     47 H           8.9188   19.7248   26.0889 H       1  UNL1        0.0625
     48 H          11.7345   22.0035   31.0827 H       1  UNL1        0.0639
     49 H          13.8320   21.7655   32.4017 H       1  UNL1        0.0625
@<TRIPOS>UNITY_ATOM_ATTR
3 1
charge -1
@<TRIPOS>BOND
     1     1     2   ar
     2     2     3   ar
     3     2     4    1
     4     4     5   ar
     5     5     6   ar
     6     6     7   ar
     7     7     8    1
     8     8     9   ar
     9     9    10   ar
    10    10    11    1
    11    11    12    1
    12    12    13    1
    13    13    14   ar
    14    14    15   ar
    15    15    16    1
    16    15    17   ar
    17    17    18   ar
    18    18    19    1
    19    19    20    1
    20    19    21    1
    21    19    22    1
    22    18    23   ar
    23    10    24   ar
    24    24    25    1
    25    25    26   ar
    26    26    27   ar
    27    27    28   ar
    28    28    29    1
    29    28    30   ar
    30    30    31   ar
    31    24    32   ar
    32     7    33   ar
    33    33    34   ar
    34    34     4   ar
    35    32     8   ar
    36    23    13   ar
    37    31    25   ar
    38     5    35    1
    39     6    36    1
    40     9    37    1
    41    11    38    1
    42    11    39    1
    43    12    40    1
    44    14    41    1
    45    17    42    1
    46    23    43    1
    47    26    44    1
    48    27    45    1
    49    30    46    1
    50    31    47    1
    51    33    48    1
    52    34    49    1
@<TRIPOS>MOLECULE
25sa23_out
 49 52 0 0 0
SMALL
GASTEIGER

@<TRIPOS>ATOM
      1 O           3.6020   15.8970   28.1460 O.co2   1  UNL1       -0.5446
      2 C           3.8150   15.6410   29.3200 C.2     1  UNL1        0.0717
      3 O           2.8450   15.3060   30.1940 O.co2   1  UNL1       -0.5446
      4 C           5.1720   15.6820   29.9160 C.ar    1  UNL1       -0.0026
      5 C           5.6990   14.5210   30.4970 C.ar    1  UNL1       -0.0509
      6 C           6.9530   14.5490   31.1210 C.ar    1  UNL1       -0.0357
      7 C           7.6780   15.7480   31.1760 C.ar    1  UNL1        0.0654
      8 N           8.9120   15.8170   31.8820 N.ar    1  UNL1       -0.2390
      9 C           9.3480   14.9290   32.8310 C.ar    1  UNL1        0.0365
     10 C          10.6100   15.3170   33.2100 C.ar    1  UNL1        0.0153
     11 C          11.4710   14.5930   34.1840 C.3     1  UNL1        0.0379
     12 N          11.5900   15.2740   35.4700 N.pl3   1  UNL1       -0.3395
     13 C          12.8530   15.4380   36.0400 C.ar    1  UNL1        0.0306
     14 C          13.9600   14.6650   35.6840 C.ar    1  UNL1       -0.0056
     15 C          15.2110   14.9250   36.2260 C.ar    1  UNL1        0.1257
     16 F          16.2500   14.1590   35.8750 F       1  UNL1       -0.2054
     17 C          15.4040   15.9680   37.1220 C.ar    1  UNL1       -0.0147
     18 C          14.3260   16.7880   37.4680 C.ar    1  UNL1        0.0593
     19 C          14.5010   17.9380   38.4250 C.3     1  UNL1        0.4176
     20 F          14.5160   17.5600   39.7330 F       1  UNL1       -0.1659
     21 F          15.6600   18.6190   38.2180 F       1  UNL1       -0.1659
     22 F          13.5010   18.8560   38.3140 F       1  UNL1       -0.1659
     23 C          13.0630   16.5230   36.9060 C.ar    1  UNL1       -0.0290
     24 C          10.8580   16.5170   32.4800 C.ar    1  UNL1        0.0978
     25 C          12.0320   17.4000   32.5560 C.ar    1  UNL1        0.0026
     26 C          13.1350   17.0680   33.3630 C.ar    1  UNL1       -0.0498
     27 C          14.2570   17.8970   33.4320 C.ar    1  UNL1       -0.0258
     28 C          14.2730   19.0790   32.7100 C.ar    1  UNL1        0.1234
     29 F          15.3410   19.8830   32.7870 F       1  UNL1       -0.2055
     30 C          13.1920   19.4440   31.9160 C.ar    1  UNL1       -0.0258
     31 C          12.0740   18.6040   31.8380 C.ar    1  UNL1       -0.0498
     32 N           9.8350   16.7800   31.6460 N.ar    1  UNL1       -0.1661
     33 C           7.1500   16.9010   30.5690 C.ar    1  UNL1       -0.0357
     34 C           5.8990   16.8730   29.9560 C.ar    1  UNL1       -0.0509
     35 H           5.1254   13.5830   30.4630 H       1  UNL1        0.0625
     36 H           7.3678   13.6328   31.5666 H       1  UNL1        0.0639
     37 H           8.7895   14.0640   33.2181 H       1  UNL1        0.0834
     38 H          11.0404   13.5955   34.3561 H       1  UNL1        0.0512
     39 H          12.4802   14.5406   33.7494 H       1  UNL1        0.0512
     40 H          10.7890   15.6140   35.9300 H       1  UNL1        0.1464
     41 H          13.8392   13.8406   34.9658 H       1  UNL1        0.0665
     42 H          16.3984   16.1478   37.5566 H       1  UNL1        0.0652
     43 H          12.2183   17.1833   37.1517 H       1  UNL1        0.0641
     44 H          13.1137   16.1384   33.9506 H       1  UNL1        0.0625
     45 H          15.1193   17.6140   34.0535 H       1  UNL1        0.0646
     46 H          13.2145   20.3880   31.3517 H       1  UNL1        0.0646
     47 H          11.2201   18.8916   31.2071 H       1  UNL1        0.0625
     48 H           7.7307   17.8352   30.5781 H       1  UNL1        0.0639
     49 H           5.4854   17.7870   29.5048 H       1  UNL1        0.0625
@<TRIPOS>UNITY_ATOM_ATTR
3 1
charge -1
@<TRIPOS>BOND
     1     1     2   ar
     2     2     3   ar
     3     2     4    1
     4     4     5   ar
     5     5     6   ar
     6     6     7   ar
     7     7     8    1
     8     8     9   ar
     9     9    10   ar
    10    10    11    1
    11    11    12    1
    12    12    13    1
    13    13    14   ar
    14    14    15   ar
    15    15    16    1
    16    15    17   ar
    17    17    18   ar
    18    18    19    1
    19    19    20    1
    20    19    21    1
    21    19    22    1
    22    18    23   ar
    23    10    24   ar
    24    24    25    1
    25    25    26   ar
    26    26    27   ar
    27    27    28   ar
    28    28    29    1
    29    28    30   ar
    30    30    31   ar
    31    24    32   ar
    32     7    33   ar
    33    33    34   ar
    34    34     4   ar
    35    32     8   ar
    36    23    13   ar
    37    31    25   ar
    38     5    35    1
    39     6    36    1
    40     9    37    1
    41    11    38    1
    42    11    39    1
    43    12    40    1
    44    14    41    1
    45    17    42    1
    46    23    43    1
    47    26    44    1
    48    27    45    1
    49    30    46    1
    50    31    47    1
    51    33    48    1
    52    34    49    1
@<TRIPOS>MOLECULE
25sa23_out
 49 52 0 0 0
SMALL
GASTEIGER

@<TRIPOS>ATOM
      1 O           5.6270   21.0880   27.4470 O.co2   1  UNL1       -0.5446
      2 C           6.5560   20.3060   27.3310 C.2     1  UNL1        0.0717
      3 O           6.6340   19.3860   26.3480 O.co2   1  UNL1       -0.5446
      4 C           7.7010   20.2760   28.2730 C.ar    1  UNL1       -0.0026
      5 C           8.9080   20.8840   27.9020 C.ar    1  UNL1       -0.0509
      6 C          10.0230   20.8180   28.7470 C.ar    1  UNL1       -0.0357
      7 C           9.9350   20.1270   29.9640 C.ar    1  UNL1        0.0654
      8 N          11.0810   19.9730   30.7940 N.ar    1  UNL1       -0.2390
      9 C          12.0410   20.9240   31.0260 C.ar    1  UNL1        0.0365
     10 C          12.9300   20.3990   31.9330 C.ar    1  UNL1        0.0153
     11 C          14.0990   21.1240   32.5020 C.3     1  UNL1        0.0379
     12 N          13.7260   22.3120   33.2660 N.pl3   1  UNL1       -0.3395
     13 C          13.4860   22.1940   34.6350 C.ar    1  UNL1        0.0306
     14 C          12.5620   22.9860   35.3220 C.ar    1  UNL1       -0.0056
     15 C          12.3080   22.7700   36.6690 C.ar    1  UNL1        0.1257
     16 F          11.4270   23.5520   37.3030 F       1  UNL1       -0.2054
     17 C          12.9460   21.7550   37.3690 C.ar    1  UNL1       -0.0147
     18 C          13.8450   20.9180   36.7030 C.ar    1  UNL1        0.0593
     19 C          14.5440   19.7960   37.4250 C.3     1  UNL1        0.4176
     20 F          14.5390   19.9360   38.7800 F       1  UNL1       -0.1659
     21 F          13.9860   18.5820   37.1710 F       1  UNL1       -0.1659
     22 F          15.8540   19.6910   37.0670 F       1  UNL1       -0.1659
     23 C          14.0900   21.1370   35.3340 C.ar    1  UNL1       -0.0290
     24 C          12.4740   19.0690   32.1640 C.ar    1  UNL1        0.0978
     25 C          13.0950   18.0260   32.9960 C.ar    1  UNL1        0.0026
     26 C          12.3840   16.8660   33.3510 C.ar    1  UNL1       -0.0498
     27 C          12.9720   15.8680   34.1310 C.ar    1  UNL1       -0.0258
     28 C          14.2700   16.0360   34.5850 C.ar    1  UNL1        0.1234
     29 F          14.8290   15.0880   35.3480 F       1  UNL1       -0.2055
     30 C          14.9930   17.1800   34.2660 C.ar    1  UNL1       -0.0258
     31 C          14.4070   18.1720   33.4710 C.ar    1  UNL1       -0.0498
     32 N          11.3250   18.8430   31.4990 N.ar    1  UNL1       -0.1661
     33 C           8.7130   19.5410   30.3370 C.ar    1  UNL1       -0.0357
     34 C           7.6070   19.6010   29.4910 C.ar    1  UNL1       -0.0509
     35 H           8.9800   21.4160   26.9419 H       1  UNL1        0.0625
     36 H          10.9648   21.3067   28.4569 H       1  UNL1        0.0639
     37 H          12.0905   21.9237   30.5699 H       1  UNL1        0.0834
     38 H          14.6451   20.4386   33.1668 H       1  UNL1        0.0512
     39 H          14.7166   21.4610   31.6564 H       1  UNL1        0.0512
     40 H          13.6450   23.1860   32.8200 H       1  UNL1        0.1464
     41 H          12.0307   23.7887   34.7896 H       1  UNL1        0.0665
     42 H          12.7451   21.6107   38.4408 H       1  UNL1        0.0652
     43 H          14.7730   20.4618   34.7977 H       1  UNL1        0.0641
     44 H          11.3461   16.7424   33.0082 H       1  UNL1        0.0625
     45 H          12.4096   14.9567   34.3826 H       1  UNL1        0.0646
     46 H          16.0211   17.3050   34.6368 H       1  UNL1        0.0646
     47 H          14.9810   19.0751   33.2161 H       1  UNL1        0.0625
     48 H           8.6287   19.0295   31.3072 H       1  UNL1        0.0639
     49 H           6.6628   19.1178   29.7824 H       1  UNL1        0.0625
@<TRIPOS>UNITY_ATOM_ATTR
3 1
charge -1
@<TRIPOS>BOND
     1     1     2   ar
     2     2     3   ar
     3     2     4    1
     4     4     5   ar
     5     5     6   ar
     6     6     7   ar
     7     7     8    1
     8     8     9   ar
     9     9    10   ar
    10    10    11    1
    11    11    12    1
    12    12    13    1
    13    13    14   ar
    14    14    15   ar
    15    15    16    1
    16    15    17   ar
    17    17    18   ar
    18    18    19    1
    19    19    20    1
    20    19    21    1
    21    19    22    1
    22    18    23   ar
    23    10    24   ar
    24    24    25    1
    25    25    26   ar
    26    26    27   ar
    27    27    28   ar
    28    28    29    1
    29    28    30   ar
    30    30    31   ar
    31    24    32   ar
    32     7    33   ar
    33    33    34   ar
    34    34     4   ar
    35    32     8   ar
    36    23    13   ar
    37    31    25   ar
    38     5    35    1
    39     6    36    1
    40     9    37    1
    41    11    38    1
    42    11    39    1
    43    12    40    1
    44    14    41    1
    45    17    42    1
    46    23    43    1
    47    26    44    1
    48    27    45    1
    49    30    46    1
    50    31    47    1
    51    33    48    1
    52    34    49    1
@<TRIPOS>MOLECULE
25sa23_out
 49 52 0 0 0
SMALL
GASTEIGER

@<TRIPOS>ATOM
      1 O           4.9610   20.9270   27.2220 O.co2   1  UNL1       -0.5446
      2 C           5.8330   20.0750   27.1700 C.2     1  UNL1        0.0717
      3 O           5.8210   19.0540   26.2900 O.co2   1  UNL1       -0.5446
      4 C           7.0010   20.0680   28.0830 C.ar    1  UNL1       -0.0026
      5 C           8.2130   20.6200   27.6480 C.ar    1  UNL1       -0.0509
      6 C           9.3480   20.5710   28.4680 C.ar    1  UNL1       -0.0357
      7 C           9.2740   19.9520   29.7240 C.ar    1  UNL1        0.0654
      8 N          10.4370   19.8140   30.5330 N.ar    1  UNL1       -0.2390
      9 C          10.8450   18.6710   31.1690 C.ar    1  UNL1        0.0365
     10 C          12.0440   18.9450   31.7820 C.ar    1  UNL1        0.0153
     11 C          12.8630   17.9590   32.5390 C.3     1  UNL1        0.0379
     12 N          12.0940   16.8120   33.0130 N.pl3   1  UNL1       -0.3395
     13 C          12.3680   16.2820   34.2740 C.ar    1  UNL1        0.0306
     14 C          11.5930   15.2870   34.8730 C.ar    1  UNL1       -0.0056
     15 C          11.9590   14.7420   36.0950 C.ar    1  UNL1        0.1257
     16 F          11.1890   13.7990   36.6490 F       1  UNL1       -0.2054
     17 C          13.1130   15.1520   36.7500 C.ar    1  UNL1       -0.0147
     18 C          13.9340   16.1160   36.1590 C.ar    1  UNL1        0.0593
     19 C          15.2010   16.5750   36.8330 C.3     1  UNL1        0.4176
     20 F          16.1970   15.6470   36.8090 F       1  UNL1       -0.1659
     21 F          15.7190   17.6970   36.2630 F       1  UNL1       -0.1659
     22 F          15.0050   16.8780   38.1460 F       1  UNL1       -0.1659
     23 C          13.5600   16.6580   34.9150 C.ar    1  UNL1       -0.0290
     24 C          12.2770   20.3280   31.5250 C.ar    1  UNL1        0.0978
     25 C          13.3830   21.1690   32.0110 C.ar    1  UNL1        0.0026
     26 C          13.2780   21.8700   33.2250 C.ar    1  UNL1       -0.0498
     27 C          14.3270   22.6610   33.6970 C.ar    1  UNL1       -0.0258
     28 C          15.4840   22.7760   32.9420 C.ar    1  UNL1        0.1234
     29 F          16.4850   23.5470   33.3850 F       1  UNL1       -0.2055
     30 C          15.6120   22.1090   31.7290 C.ar    1  UNL1       -0.0258
     31 C          14.5640   21.3040   31.2650 C.ar    1  UNL1       -0.0498
     32 N          11.3140   20.8280   30.7280 N.ar    1  UNL1       -0.1661
     33 C           8.0470   19.4220   30.1600 C.ar    1  UNL1       -0.0357
     34 C           6.9210   19.4650   29.3400 C.ar    1  UNL1       -0.0509
     35 H           8.2738   21.0944   26.6574 H       1  UNL1        0.0625
     36 H          10.2942   21.0168   28.1275 H       1  UNL1        0.0639
     37 H          10.3105   17.7097   31.1858 H       1  UNL1        0.0834
     38 H          13.6655   17.5936   31.8814 H       1  UNL1        0.0512
     39 H          13.2573   18.4760   33.4263 H       1  UNL1        0.0512
     40 H          11.3900   16.4160   32.4500 H       1  UNL1        0.1464
     41 H          10.6817   14.9312   34.3701 H       1  UNL1        0.0665
     42 H          13.3787   14.7211   37.7266 H       1  UNL1        0.0652
     43 H          14.2183   17.3952   34.4322 H       1  UNL1        0.0641
     44 H          12.3521   21.7938   33.8140 H       1  UNL1        0.0625
     45 H          14.2364   23.1878   34.6584 H       1  UNL1        0.0646
     46 H          16.5326   22.2130   31.1360 H       1  UNL1        0.0646
     47 H          14.6675   20.7728   30.3073 H       1  UNL1        0.0625
     48 H           7.9749   18.9683   31.1595 H       1  UNL1        0.0639
     49 H           5.9723   19.0254   29.6818 H       1  UNL1        0.0625
@<TRIPOS>UNITY_ATOM_ATTR
3 1
charge -1
@<TRIPOS>BOND
     1     1     2   ar
     2     2     3   ar
     3     2     4    1
     4     4     5   ar
     5     5     6   ar
     6     6     7   ar
     7     7     8    1
     8     8     9   ar
     9     9    10   ar
    10    10    11    1
    11    11    12    1
    12    12    13    1
    13    13    14   ar
    14    14    15   ar
    15    15    16    1
    16    15    17   ar
    17    17    18   ar
    18    18    19    1
    19    19    20    1
    20    19    21    1
    21    19    22    1
    22    18    23   ar
    23    10    24   ar
    24    24    25    1
    25    25    26   ar
    26    26    27   ar
    27    27    28   ar
    28    28    29    1
    29    28    30   ar
    30    30    31   ar
    31    24    32   ar
    32     7    33   ar
    33    33    34   ar
    34    34     4   ar
    35    32     8   ar
    36    23    13   ar
    37    31    25   ar
    38     5    35    1
    39     6    36    1
    40     9    37    1
    41    11    38    1
    42    11    39    1
    43    12    40    1
    44    14    41    1
    45    17    42    1
    46    23    43    1
    47    26    44    1
    48    27    45    1
    49    30    46    1
    50    31    47    1
    51    33    48    1
    52    34    49    1
@<TRIPOS>MOLECULE
25sa23_out
 49 52 0 0 0
SMALL
GASTEIGER

@<TRIPOS>ATOM
      1 O           6.0780   20.1010   26.5090 O.co2   1  UNL1       -0.5446
      2 C           6.0740   20.3670   27.6990 C.2     1  UNL1        0.0717
      3 O           4.9670   20.7400   28.3720 O.co2   1  UNL1       -0.5446
      4 C           7.2980   20.3180   28.5350 C.ar    1  UNL1       -0.0026
      5 C           8.5280   20.6770   27.9690 C.ar    1  UNL1       -0.0509
      6 C           9.7070   20.5810   28.7190 C.ar    1  UNL1       -0.0357
      7 C           9.6580   20.1090   30.0380 C.ar    1  UNL1        0.0654
      8 N          10.8550   19.9210   30.7850 N.ar    1  UNL1       -0.2390
      9 C          11.4180   18.7160   31.1150 C.ar    1  UNL1        0.0365
     10 C          12.5940   18.9770   31.7750 C.ar    1  UNL1        0.0153
     11 C          13.5500   17.9440   32.2600 C.3     1  UNL1        0.0379
     12 N          13.3250   17.5560   33.6500 N.pl3   1  UNL1       -0.3395
     13 C          12.4460   16.5100   33.9310 C.ar    1  UNL1        0.0306
     14 C          12.4790   15.7800   35.1220 C.ar    1  UNL1       -0.0056
     15 C          11.5290   14.8020   35.3800 C.ar    1  UNL1        0.1257
     16 F          11.5940   14.1110   36.5240 F       1  UNL1       -0.2054
     17 C          10.5100   14.5320   34.4770 C.ar    1  UNL1       -0.0147
     18 C          10.4220   15.2720   33.2950 C.ar    1  UNL1        0.0593
     19 C           9.3220   15.0170   32.2980 C.3     1  UNL1        0.4176
     20 F           8.2320   14.4020   32.8360 F       1  UNL1       -0.1659
     21 F           8.8610   16.1610   31.7240 F       1  UNL1       -0.1659
     22 F           9.7300   14.2200   31.2720 F       1  UNL1       -0.1659
     23 C          11.3840   16.2680   33.0440 C.ar    1  UNL1       -0.0290
     24 C          12.6510   20.3980   31.8720 C.ar    1  UNL1        0.0978
     25 C          13.6630   21.2230   32.5500 C.ar    1  UNL1        0.0026
     26 C          13.6250   21.4130   33.9430 C.ar    1  UNL1       -0.0498
     27 C          14.5880   22.1860   34.5940 C.ar    1  UNL1       -0.0258
     28 C          15.5860   22.7970   33.8510 C.ar    1  UNL1        0.1234
     29 F          16.5000   23.5520   34.4720 F       1  UNL1       -0.2055
     30 C          15.6400   22.6440   32.4710 C.ar    1  UNL1       -0.0258
     31 C          14.6820   21.8560   31.8210 C.ar    1  UNL1       -0.0498
     32 N          11.6100   20.9560   31.2260 N.ar    1  UNL1       -0.1661
     33 C           8.4160   19.7740   30.6040 C.ar    1  UNL1       -0.0357
     34 C           7.2450   19.8630   29.8540 C.ar    1  UNL1       -0.0509
     35 H           8.5682   21.0362   26.9301 H       1  UNL1        0.0625
     36 H          10.6690   20.8753   28.2741 H       1  UNL1        0.0639
     37 H          11.0039   17.7216   30.8921 H       1  UNL1        0.0834
     38 H          13.4488   17.0500   31.6272 H       1  UNL1        0.0512
     39 H          14.5581   18.3804   32.2026 H       1  UNL1        0.0512
     40 H          13.7880   18.0260   34.3810 H       1  UNL1        0.1464
     41 H          13.2664   15.9827   35.8629 H       1  UNL1        0.0665
     42 H           9.7765   13.7406   34.6905 H       1  UNL1        0.0652
     43 H          11.3021   16.8730   32.1290 H       1  UNL1        0.0641
     44 H          12.8218   20.9439   34.5302 H       1  UNL1        0.0625
     45 H          14.5551   22.3091   35.6866 H       1  UNL1        0.0646
     46 H          16.4323   23.1400   31.8912 H       1  UNL1        0.0646
     47 H          14.7285   21.7319   30.7290 H       1  UNL1        0.0625
     48 H           8.3678   19.4379   31.6503 H       1  UNL1        0.0639
     49 H           6.2814   19.5756   30.2999 H       1  UNL1        0.0625
@<TRIPOS>UNITY_ATOM_ATTR
3 1
charge -1
@<TRIPOS>BOND
     1     1     2   ar
     2     2     3   ar
     3     2     4    1
     4     4     5   ar
     5     5     6   ar
     6     6     7   ar
     7     7     8    1
     8     8     9   ar
     9     9    10   ar
    10    10    11    1
    11    11    12    1
    12    12    13    1
    13    13    14   ar
    14    14    15   ar
    15    15    16    1
    16    15    17   ar
    17    17    18   ar
    18    18    19    1
    19    19    20    1
    20    19    21    1
    21    19    22    1
    22    18    23   ar
    23    10    24   ar
    24    24    25    1
    25    25    26   ar
    26    26    27   ar
    27    27    28   ar
    28    28    29    1
    29    28    30   ar
    30    30    31   ar
    31    24    32   ar
    32     7    33   ar
    33    33    34   ar
    34    34     4   ar
    35    32     8   ar
    36    23    13   ar
    37    31    25   ar
    38     5    35    1
    39     6    36    1
    40     9    37    1
    41    11    38    1
    42    11    39    1
    43    12    40    1
    44    14    41    1
    45    17    42    1
    46    23    43    1
    47    26    44    1
    48    27    45    1
    49    30    46    1
    50    31    47    1
    51    33    48    1
    52    34    49    1
@<TRIPOS>MOLECULE
25sa23_out
 49 52 0 0 0
SMALL
GASTEIGER

@<TRIPOS>ATOM
      1 O          15.1640   18.2880   32.4550 O.co2   1  UNL1       -0.5446
      2 C          14.2510   18.9050   32.9790 C.2     1  UNL1        0.0717
      3 O          14.2530   19.2730   34.2760 O.co2   1  UNL1       -0.5446
      4 C          13.0300   19.3100   32.2420 C.ar    1  UNL1       -0.0026
      5 C          12.1010   18.3300   31.8680 C.ar    1  UNL1       -0.0509
      6 C          10.9700   18.6760   31.1180 C.ar    1  UNL1       -0.0357
      7 C          10.7750   20.0090   30.7270 C.ar    1  UNL1        0.0654
      8 N           9.6790   20.3650   29.8900 N.ar    1  UNL1       -0.2390
      9 C           9.6210   20.2110   28.5300 C.ar    1  UNL1        0.0365
     10 C           8.3720   20.6120   28.1210 C.ar    1  UNL1        0.0153
     11 C           7.8700   20.5540   26.7220 C.3     1  UNL1        0.0379
     12 N           6.4180   20.4190   26.6330 N.pl3   1  UNL1       -0.3395
     13 C           5.8540   19.1440   26.6050 C.ar    1  UNL1        0.0306
     14 C           5.7430   18.3800   25.4400 C.ar    1  UNL1       -0.0056
     15 C           5.2450   17.0860   25.4850 C.ar    1  UNL1        0.1257
     16 F           5.1390   16.3850   24.3510 F       1  UNL1       -0.2054
     17 C           4.8600   16.5040   26.6850 C.ar    1  UNL1       -0.0147
     18 C           4.9960   17.2240   27.8750 C.ar    1  UNL1        0.0593
     19 C           4.6030   16.6210   29.1980 C.3     1  UNL1        0.4176
     20 F           3.5180   15.8000   29.1210 F       1  UNL1       -0.1659
     21 F           5.5980   15.8760   29.7500 F       1  UNL1       -0.1659
     22 F           4.2860   17.5690   30.1230 F       1  UNL1       -0.1659
     23 C           5.5110   18.5330   27.8220 C.ar    1  UNL1       -0.0290
     24 C           7.7310   21.0710   29.3090 C.ar    1  UNL1        0.0978
     25 C           6.3980   21.6810   29.4450 C.ar    1  UNL1        0.0026
     26 C           6.1410   22.9720   28.9480 C.ar    1  UNL1       -0.0498
     27 C           4.8770   23.5520   29.0640 C.ar    1  UNL1       -0.0258
     28 C           3.8640   22.8540   29.7010 C.ar    1  UNL1        0.1234
     29 F           2.6550   23.4160   29.8280 F       1  UNL1       -0.2055
     30 C           4.0910   21.5840   30.2180 C.ar    1  UNL1       -0.0258
     31 C           5.3560   20.9970   30.0870 C.ar    1  UNL1       -0.0498
     32 N           8.5230   20.8720   30.3800 N.ar    1  UNL1       -0.1661
     33 C          11.7010   20.9870   31.1270 C.ar    1  UNL1       -0.0357
     34 C          12.8290   20.6390   31.8670 C.ar    1  UNL1       -0.0509
     35 H          12.2609   17.2830   32.1651 H       1  UNL1        0.0625
     36 H          10.2373   17.9053   30.8366 H       1  UNL1        0.0639
     37 H          10.4274   19.8349   27.8832 H       1  UNL1        0.0834
     38 H           8.1667   21.4792   26.2062 H       1  UNL1        0.0512
     39 H           8.3090   19.6597   26.2557 H       1  UNL1        0.0512
     40 H           5.8450   21.2180   26.5940 H       1  UNL1        0.1464
     41 H           6.0541   18.8097   24.4763 H       1  UNL1        0.0665
     42 H           4.4507   15.4831   26.6991 H       1  UNL1        0.0652
     43 H           5.6485   19.0924   28.7591 H       1  UNL1        0.0641
     44 H           6.9506   23.5340   28.4594 H       1  UNL1        0.0625
     45 H           4.6867   24.5545   28.6533 H       1  UNL1        0.0646
     46 H           3.2807   21.0422   30.7278 H       1  UNL1        0.0646
     47 H           5.5336   19.9897   30.4917 H       1  UNL1        0.0625
     48 H          11.5336   22.0391   30.8529 H       1  UNL1        0.0639
     49 H          13.5591   21.4097   32.1549 H       1  UNL1        0.0625
@<TRIPOS>UNITY_ATOM_ATTR
3 1
charge -1
@<TRIPOS>BOND
     1     1     2   ar
     2     2     3   ar
     3     2     4    1
     4     4     5   ar
     5     5     6   ar
     6     6     7   ar
     7     7     8    1
     8     8     9   ar
     9     9    10   ar
    10    10    11    1
    11    11    12    1
    12    12    13    1
    13    13    14   ar
    14    14    15   ar
    15    15    16    1
    16    15    17   ar
    17    17    18   ar
    18    18    19    1
    19    19    20    1
    20    19    21    1
    21    19    22    1
    22    18    23   ar
    23    10    24   ar
    24    24    25    1
    25    25    26   ar
    26    26    27   ar
    27    27    28   ar
    28    28    29    1
    29    28    30   ar
    30    30    31   ar
    31    24    32   ar
    32     7    33   ar
    33    33    34   ar
    34    34     4   ar
    35    32     8   ar
    36    23    13   ar
    37    31    25   ar
    38     5    35    1
    39     6    36    1
    40     9    37    1
    41    11    38    1
    42    11    39    1
    43    12    40    1
    44    14    41    1
    45    17    42    1
    46    23    43    1
    47    26    44    1
    48    27    45    1
    49    30    46    1
    50    31    47    1
    51    33    48    1
    52    34    49    1
@<TRIPOS>MOLECULE
25sa23_out
 49 52 0 0 0
SMALL
GASTEIGER

@<TRIPOS>ATOM
      1 O           6.1680   19.6910   26.3440 O.co2   1  UNL1       -0.5446
      2 C           6.1990   20.2800   27.4120 C.2     1  UNL1        0.0717
      3 O           5.1830   21.0360   27.8720 O.co2   1  UNL1       -0.5446
      4 C           7.3720   20.2350   28.3170 C.ar    1  UNL1       -0.0026
      5 C           8.6040   20.7290   27.8670 C.ar    1  UNL1       -0.0509
      6 C           9.7410   20.6420   28.6790 C.ar    1  UNL1       -0.0357
      7 C           9.6500   20.0440   29.9440 C.ar    1  UNL1        0.0654
      8 N          10.8120   19.8670   30.7470 N.ar    1  UNL1       -0.2390
      9 C          11.3070   18.6700   31.1960 C.ar    1  UNL1        0.0365
     10 C          12.4720   18.9340   31.8750 C.ar    1  UNL1        0.0153
     11 C          13.3620   17.9050   32.4780 C.3     1  UNL1        0.0379
     12 N          13.9210   18.3070   33.7660 N.pl3   1  UNL1       -0.3395
     13 C          13.7900   17.4530   34.8610 C.ar    1  UNL1        0.0306
     14 C          14.5430   17.5850   36.0300 C.ar    1  UNL1       -0.0056
     15 C          14.3150   16.7550   37.1180 C.ar    1  UNL1        0.1257
     16 F          15.0610   16.8980   38.2190 F       1  UNL1       -0.2054
     17 C          13.3230   15.7840   37.0880 C.ar    1  UNL1       -0.0147
     18 C          12.5230   15.6520   35.9490 C.ar    1  UNL1        0.0593
     19 C          11.4280   14.6200   35.8850 C.3     1  UNL1        0.4176
     20 F          10.1760   15.1560   35.8500 F       1  UNL1       -0.1659
     21 F          11.5240   13.8210   34.7880 F       1  UNL1       -0.1659
     22 F          11.4440   13.7840   36.9610 F       1  UNL1       -0.1659
     23 C          12.7550   16.5040   34.8530 C.ar    1  UNL1       -0.0290
     24 C          12.5930   20.3540   31.8540 C.ar    1  UNL1        0.0978
     25 C          13.6200   21.1880   32.4980 C.ar    1  UNL1        0.0026
     26 C          13.3420   21.8880   33.6860 C.ar    1  UNL1       -0.0498
     27 C          14.3160   22.6730   34.3070 C.ar    1  UNL1       -0.0258
     28 C          15.5710   22.7830   33.7300 C.ar    1  UNL1        0.1234
     29 F          16.5000   23.5480   34.3160 F       1  UNL1       -0.2055
     30 C          15.8710   22.1170   32.5470 C.ar    1  UNL1       -0.0258
     31 C          14.8980   21.3190   31.9330 C.ar    1  UNL1       -0.0498
     32 N          11.6000   20.9010   31.1270 N.ar    1  UNL1       -0.1661
     33 C           8.4050   19.5720   30.3960 C.ar    1  UNL1       -0.0357
     34 C           7.2760   19.6520   29.5820 C.ar    1  UNL1       -0.0509
     35 H           8.6779   21.1877   26.8700 H       1  UNL1        0.0625
     36 H          10.7030   21.0416   28.3257 H       1  UNL1        0.0639
     37 H          10.8544   17.6795   31.0410 H       1  UNL1        0.0834
     38 H          12.7809   16.9823   32.6224 H       1  UNL1        0.0512
     39 H          14.2061   17.7599   31.7878 H       1  UNL1        0.0512
     40 H          14.3850   19.1700   33.8600 H       1  UNL1        0.1464
     41 H          15.3256   18.3558   36.0886 H       1  UNL1        0.0665
     42 H          13.1677   15.1236   37.9538 H       1  UNL1        0.0652
     43 H          12.1084   16.4244   33.9667 H       1  UNL1        0.0641
     44 H          12.3399   21.8159   34.1338 H       1  UNL1        0.0625
     45 H          14.0889   23.1993   35.2458 H       1  UNL1        0.0646
     46 H          16.8689   22.2166   32.0951 H       1  UNL1        0.0646
     47 H          15.1376   20.7897   30.9989 H       1  UNL1        0.0625
     48 H           8.3210   19.1352   31.4021 H       1  UNL1        0.0639
     49 H           6.3122   19.2569   29.9354 H       1  UNL1        0.0625
@<TRIPOS>UNITY_ATOM_ATTR
3 1
charge -1
@<TRIPOS>BOND
     1     1     2   ar
     2     2     3   ar
     3     2     4    1
     4     4     5   ar
     5     5     6   ar
     6     6     7   ar
     7     7     8    1
     8     8     9   ar
     9     9    10   ar
    10    10    11    1
    11    11    12    1
    12    12    13    1
    13    13    14   ar
    14    14    15   ar
    15    15    16    1
    16    15    17   ar
    17    17    18   ar
    18    18    19    1
    19    19    20    1
    20    19    21    1
    21    19    22    1
    22    18    23   ar
    23    10    24   ar
    24    24    25    1
    25    25    26   ar
    26    26    27   ar
    27    27    28   ar
    28    28    29    1
    29    28    30   ar
    30    30    31   ar
    31    24    32   ar
    32     7    33   ar
    33    33    34   ar
    34    34     4   ar
    35    32     8   ar
    36    23    13   ar
    37    31    25   ar
    38     5    35    1
    39     6    36    1
    40     9    37    1
    41    11    38    1
    42    11    39    1
    43    12    40    1
    44    14    41    1
    45    17    42    1
    46    23    43    1
    47    26    44    1
    48    27    45    1
    49    30    46    1
    50    31    47    1
    51    33    48    1
    52    34    49    1
@<TRIPOS>MOLECULE
25sa23_out
 49 52 0 0 0
SMALL
GASTEIGER

@<TRIPOS>ATOM
      1 O          15.2570   18.6190   31.8840 O.co2   1  UNL1       -0.5446
      2 C          14.4130   19.3340   32.4000 C.2     1  UNL1        0.0717
      3 O          14.6430   20.0740   33.5040 O.co2   1  UNL1       -0.5446
      4 C          13.0340   19.4560   31.8710 C.ar    1  UNL1       -0.0026
      5 C          12.5670   20.7120   31.4600 C.ar    1  UNL1       -0.0509
      6 C          11.2490   20.8650   31.0130 C.ar    1  UNL1       -0.0357
      7 C          10.3870   19.7600   30.9930 C.ar    1  UNL1        0.0654
      8 N           9.0200   19.9140   30.6270 N.ar    1  UNL1       -0.2390
      9 C           8.3490   21.1030   30.4990 C.ar    1  UNL1        0.0365
     10 C           7.0770   20.8150   30.0660 C.ar    1  UNL1        0.0153
     11 C           6.0340   21.8260   29.7450 C.3     1  UNL1        0.0379
     12 N           6.3360   22.6090   28.5500 N.pl3   1  UNL1       -0.3395
     13 C           6.7170   21.9490   27.3820 C.ar    1  UNL1        0.0306
     14 C           7.9640   22.1220   26.7760 C.ar    1  UNL1       -0.0056
     15 C           8.3180   21.3790   25.6590 C.ar    1  UNL1        0.1257
     16 F           9.5150   21.5750   25.0940 F       1  UNL1       -0.2054
     17 C           7.4570   20.4330   25.1200 C.ar    1  UNL1       -0.0147
     18 C           6.2180   20.2050   25.7250 C.ar    1  UNL1        0.0593
     19 C           5.2630   19.1770   25.1780 C.3     1  UNL1        0.4176
     20 F           5.7840   18.4390   24.1580 F       1  UNL1       -0.1659
     21 F           4.8620   18.2820   26.1210 F       1  UNL1       -0.1659
     22 F           4.1250   19.7400   24.6870 F       1  UNL1       -0.1659
     23 C           5.8700   20.9560   26.8640 C.ar    1  UNL1       -0.0290
     24 C           7.0230   19.3910   30.0150 C.ar    1  UNL1        0.0978
     25 C           5.8710   18.5360   29.6860 C.ar    1  UNL1        0.0026
     26 C           6.0260   17.1490   29.5190 C.ar    1  UNL1       -0.0498
     27 C           4.9350   16.3310   29.2170 C.ar    1  UNL1       -0.0258
     28 C           3.6820   16.9010   29.0550 C.ar    1  UNL1        0.1234
     29 F           2.6380   16.1200   28.7490 F       1  UNL1       -0.2055
     30 C           3.5000   18.2710   29.1960 C.ar    1  UNL1       -0.0258
     31 C           4.5930   19.0880   29.5140 C.ar    1  UNL1       -0.0498
     32 N           8.2250   18.8630   30.3160 N.ar    1  UNL1       -0.1661
     33 C          10.8710   18.5000   31.3860 C.ar    1  UNL1       -0.0357
     34 C          12.1810   18.3510   31.8370 C.ar    1  UNL1       -0.0509
     35 H          13.2395   21.5820   31.4888 H       1  UNL1        0.0625
     36 H          10.8910   21.8498   30.6784 H       1  UNL1        0.0639
     37 H           8.7548   22.1044   30.7052 H       1  UNL1        0.0834
     38 H           5.0786   21.3040   29.5880 H       1  UNL1        0.0512
     39 H           5.9893   22.5275   30.5911 H       1  UNL1        0.0512
     40 H           6.2710   23.5910   28.5680 H       1  UNL1        0.1464
     41 H           8.6726   22.8551   27.1889 H       1  UNL1        0.0665
     42 H           7.7479   19.8667   24.2229 H       1  UNL1        0.0652
     43 H           4.9088   20.7596   27.3614 H       1  UNL1        0.0641
     44 H           7.0242   16.6999   29.6281 H       1  UNL1        0.0625
     45 H           5.0689   15.2446   29.1087 H       1  UNL1        0.0646
     46 H           2.5019   18.7126   29.0586 H       1  UNL1        0.0646
     47 H           4.4475   20.1722   29.6298 H       1  UNL1        0.0625
     48 H          10.2089   17.6229   31.3370 H       1  UNL1        0.0639
     49 H          12.5423   17.3653   32.1654 H       1  UNL1        0.0625
@<TRIPOS>UNITY_ATOM_ATTR
3 1
charge -1
@<TRIPOS>BOND
     1     1     2   ar
     2     2     3   ar
     3     2     4    1
     4     4     5   ar
     5     5     6   ar
     6     6     7   ar
     7     7     8    1
     8     8     9   ar
     9     9    10   ar
    10    10    11    1
    11    11    12    1
    12    12    13    1
    13    13    14   ar
    14    14    15   ar
    15    15    16    1
    16    15    17   ar
    17    17    18   ar
    18    18    19    1
    19    19    20    1
    20    19    21    1
    21    19    22    1
    22    18    23   ar
    23    10    24   ar
    24    24    25    1
    25    25    26   ar
    26    26    27   ar
    27    27    28   ar
    28    28    29    1
    29    28    30   ar
    30    30    31   ar
    31    24    32   ar
    32     7    33   ar
    33    33    34   ar
    34    34     4   ar
    35    32     8   ar
    36    23    13   ar
    37    31    25   ar
    38     5    35    1
    39     6    36    1
    40     9    37    1
    41    11    38    1
    42    11    39    1
    43    12    40    1
    44    14    41    1
    45    17    42    1
    46    23    43    1
    47    26    44    1
    48    27    45    1
    49    30    46    1
    50    31    47    1
    51    33    48    1
    52    34    49    1
@<TRIPOS>MOLECULE
25sa23_out
 49 52 0 0 0
SMALL
GASTEIGER

@<TRIPOS>ATOM
      1 O          15.4540   19.9940   33.8200 O.co2   1  UNL1       -0.5446
      2 C          15.0440   19.3210   32.8890 C.2     1  UNL1        0.0717
      3 O          15.7730   18.3570   32.2920 O.co2   1  UNL1       -0.5446
      4 C          13.6930   19.5020   32.3040 C.ar    1  UNL1       -0.0026
      5 C          12.8650   18.3850   32.1360 C.ar    1  UNL1       -0.0509
      6 C          11.6090   18.5190   31.5300 C.ar    1  UNL1       -0.0357
      7 C          11.1860   19.7760   31.0760 C.ar    1  UNL1        0.0654
      8 N           9.9520   19.9160   30.3780 N.ar    1  UNL1       -0.2390
      9 C           8.7830   19.2630   30.6700 C.ar    1  UNL1        0.0365
     10 C           7.8220   19.7310   29.8060 C.ar    1  UNL1        0.0153
     11 C           6.3910   19.3240   29.8180 C.3     1  UNL1        0.0379
     12 N           5.9110   18.8600   28.5190 N.pl3   1  UNL1       -0.3395
     13 C           5.1310   19.7120   27.7370 C.ar    1  UNL1        0.0306
     14 C           5.0230   19.5950   26.3490 C.ar    1  UNL1       -0.0056
     15 C           4.1690   20.4220   25.6330 C.ar    1  UNL1        0.1257
     16 F           4.0970   20.2930   24.3030 F       1  UNL1       -0.2054
     17 C           3.3870   21.3750   26.2700 C.ar    1  UNL1       -0.0147
     18 C           3.4400   21.4920   27.6610 C.ar    1  UNL1        0.0593
     19 C           2.5940   22.5040   28.3890 C.3     1  UNL1        0.4176
     20 F           3.2090   23.0460   29.4760 F       1  UNL1       -0.1659
     21 F           2.2370   23.5520   27.5980 F       1  UNL1       -0.1659
     22 F           1.4300   21.9670   28.8490 F       1  UNL1       -0.1659
     23 C           4.3010   20.6430   28.3820 C.ar    1  UNL1       -0.0290
     24 C           8.5120   20.6400   28.9520 C.ar    1  UNL1        0.0978
     25 C           7.9830   21.3770   27.7930 C.ar    1  UNL1        0.0026
     26 C           8.2630   20.9570   26.4810 C.ar    1  UNL1       -0.0498
     27 C           7.7550   21.6460   25.3770 C.ar    1  UNL1       -0.0258
     28 C           6.9820   22.7780   25.5790 C.ar    1  UNL1        0.1234
     29 F           6.5080   23.4490   24.5220 F       1  UNL1       -0.2055
     30 C           6.7020   23.2290   26.8640 C.ar    1  UNL1       -0.0258
     31 C           7.2000   22.5280   27.9700 C.ar    1  UNL1       -0.0498
     32 N           9.7940   20.7740   29.3420 N.ar    1  UNL1       -0.1661
     33 C          12.0140   20.8940   31.2690 C.ar    1  UNL1       -0.0357
     34 C          13.2670   20.7570   31.8660 C.ar    1  UNL1       -0.0509
     35 H          13.2028   17.3969   32.4818 H       1  UNL1        0.0625
     36 H          10.9571   17.6410   31.4109 H       1  UNL1        0.0639
     37 H           8.6400   18.5034   31.4526 H       1  UNL1        0.0834
     38 H           6.2657   18.5102   30.5474 H       1  UNL1        0.0512
     39 H           5.8016   20.2139   30.0840 H       1  UNL1        0.0512
     40 H           6.1350   17.9570   28.1980 H       1  UNL1        0.1464
     41 H           5.6210   18.8396   25.8182 H       1  UNL1        0.0665
     42 H           2.7298   22.0339   25.6836 H       1  UNL1        0.0652
     43 H           4.3241   20.7108   29.4797 H       1  UNL1        0.0641
     44 H           8.8934   20.0699   26.3208 H       1  UNL1        0.0625
     45 H           7.9667   21.2931   24.3569 H       1  UNL1        0.0646
     46 H           6.0920   24.1324   27.0116 H       1  UNL1        0.0646
     47 H           6.9752   22.8831   28.9865 H       1  UNL1        0.0625
     48 H          11.6707   21.8879   30.9460 H       1  UNL1        0.0639
     49 H          13.9175   21.6352   31.9913 H       1  UNL1        0.0625
@<TRIPOS>UNITY_ATOM_ATTR
3 1
charge -1
@<TRIPOS>BOND
     1     1     2   ar
     2     2     3   ar
     3     2     4    1
     4     4     5   ar
     5     5     6   ar
     6     6     7   ar
     7     7     8    1
     8     8     9   ar
     9     9    10   ar
    10    10    11    1
    11    11    12    1
    12    12    13    1
    13    13    14   ar
    14    14    15   ar
    15    15    16    1
    16    15    17   ar
    17    17    18   ar
    18    18    19    1
    19    19    20    1
    20    19    21    1
    21    19    22    1
    22    18    23   ar
    23    10    24   ar
    24    24    25    1
    25    25    26   ar
    26    26    27   ar
    27    27    28   ar
    28    28    29    1
    29    28    30   ar
    30    30    31   ar
    31    24    32   ar
    32     7    33   ar
    33    33    34   ar
    34    34     4   ar
    35    32     8   ar
    36    23    13   ar
    37    31    25   ar
    38     5    35    1
    39     6    36    1
    40     9    37    1
    41    11    38    1
    42    11    39    1
    43    12    40    1
    44    14    41    1
    45    17    42    1
    46    23    43    1
    47    26    44    1
    48    27    45    1
    49    30    46    1
    50    31    47    1
    51    33    48    1
    52    34    49    1
@<TRIPOS>MOLECULE
25sa23_out
 49 52 0 0 0
SMALL
GASTEIGER

@<TRIPOS>ATOM
      1 O           5.2590   21.0140   27.4990 O.co2   1  UNL1       -0.5446
      2 C           6.1970   20.2510   27.3380 C.2     1  UNL1        0.0717
      3 O           6.2660   19.3630   26.3260 O.co2   1  UNL1       -0.5446
      4 C           7.3640   20.2130   28.2520 C.ar    1  UNL1       -0.0026
      5 C           8.6040   20.6830   27.7980 C.ar    1  UNL1       -0.0509
      6 C           9.7350   20.6010   28.6200 C.ar    1  UNL1       -0.0357
      7 C           9.6290   20.0320   29.8970 C.ar    1  UNL1        0.0654
      8 N          10.7850   19.8600   30.7110 N.ar    1  UNL1       -0.2390
      9 C          11.2610   18.6690   31.1910 C.ar    1  UNL1        0.0365
     10 C          12.4260   18.9340   31.8710 C.ar    1  UNL1        0.0153
     11 C          13.2990   17.9080   32.5040 C.3     1  UNL1        0.0379
     12 N          12.7280   17.3330   33.7190 N.pl3   1  UNL1       -0.3395
     13 C          13.5740   16.7270   34.6480 C.ar    1  UNL1        0.0306
     14 C          14.2030   15.5000   34.4250 C.ar    1  UNL1       -0.0056
     15 C          15.0970   14.9820   35.3520 C.ar    1  UNL1        0.1257
     16 F          15.6740   13.7990   35.1150 F       1  UNL1       -0.2054
     17 C          15.4060   15.6710   36.5160 C.ar    1  UNL1       -0.0147
     18 C          14.8260   16.9210   36.7520 C.ar    1  UNL1        0.0593
     19 C          15.1490   17.7050   37.9970 C.3     1  UNL1        0.4176
     20 F          15.8900   17.0070   38.9030 F       1  UNL1       -0.1659
     21 F          15.8510   18.8400   37.7330 F       1  UNL1       -0.1659
     22 F          14.0280   18.1020   38.6610 F       1  UNL1       -0.1659
     23 C          13.9280   17.4430   35.8020 C.ar    1  UNL1       -0.0290
     24 C          12.5650   20.3520   31.8180 C.ar    1  UNL1        0.0978
     25 C          13.5990   21.1880   32.4480 C.ar    1  UNL1        0.0026
     26 C          13.4540   21.6390   33.7720 C.ar    1  UNL1       -0.0498
     27 C          14.4370   22.4240   34.3790 C.ar    1  UNL1       -0.0258
     28 C          15.5620   22.7850   33.6550 C.ar    1  UNL1        0.1234
     29 F          16.4970   23.5520   34.2310 F       1  UNL1       -0.2055
     30 C          15.7250   22.3690   32.3390 C.ar    1  UNL1       -0.0258
     31 C          14.7460   21.5700   31.7370 C.ar    1  UNL1       -0.0498
     32 N          11.5830   20.8930   31.0720 N.ar    1  UNL1       -0.1661
     33 C           8.3770   19.5850   30.3510 C.ar    1  UNL1       -0.0357
     34 C           7.2540   19.6600   29.5290 C.ar    1  UNL1       -0.0509
     35 H           8.6893   21.1183   26.7914 H       1  UNL1        0.0625
     36 H          10.7038   20.9820   28.2647 H       1  UNL1        0.0639
     37 H          10.7962   17.6811   31.0570 H       1  UNL1        0.0834
     38 H          13.4667   17.0974   31.7796 H       1  UNL1        0.0512
     39 H          14.2356   18.4090   32.7899 H       1  UNL1        0.0512
     40 H          11.7580   17.3720   33.8810 H       1  UNL1        0.1464
     41 H          13.9875   14.9378   33.5044 H       1  UNL1        0.0665
     42 H          16.1026   15.2367   37.2482 H       1  UNL1        0.0652
     43 H          13.4919   18.4390   35.9686 H       1  UNL1        0.0641
     44 H          12.5511   21.3690   34.3393 H       1  UNL1        0.0625
     45 H          14.3192   22.7526   35.4221 H       1  UNL1        0.0646
     46 H          16.6199   22.6665   31.7727 H       1  UNL1        0.0646
     47 H          14.8775   21.2386   30.6964 H       1  UNL1        0.0625
     48 H           8.2820   19.1715   31.3659 H       1  UNL1        0.0639
     49 H           6.2835   19.2844   29.8856 H       1  UNL1        0.0625
@<TRIPOS>UNITY_ATOM_ATTR
3 1
charge -1
@<TRIPOS>BOND
     1     1     2   ar
     2     2     3   ar
     3     2     4    1
     4     4     5   ar
     5     5     6   ar
     6     6     7   ar
     7     7     8    1
     8     8     9   ar
     9     9    10   ar
    10    10    11    1
    11    11    12    1
    12    12    13    1
    13    13    14   ar
    14    14    15   ar
    15    15    16    1
    16    15    17   ar
    17    17    18   ar
    18    18    19    1
    19    19    20    1
    20    19    21    1
    21    19    22    1
    22    18    23   ar
    23    10    24   ar
    24    24    25    1
    25    25    26   ar
    26    26    27   ar
    27    27    28   ar
    28    28    29    1
    29    28    30   ar
    30    30    31   ar
    31    24    32   ar
    32     7    33   ar
    33    33    34   ar
    34    34     4   ar
    35    32     8   ar
    36    23    13   ar
    37    31    25   ar
    38     5    35    1
    39     6    36    1
    40     9    37    1
    41    11    38    1
    42    11    39    1
    43    12    40    1
    44    14    41    1
    45    17    42    1
    46    23    43    1
    47    26    44    1
    48    27    45    1
    49    30    46    1
    50    31    47    1
    51    33    48    1
    52    34    49    1
@<TRIPOS>MOLECULE
25sa23_out
 49 52 0 0 0
SMALL
GASTEIGER

@<TRIPOS>ATOM
      1 O           1.3710   15.6900   28.6270 O.co2   1  UNL1       -0.5446
      2 C           1.9090   16.1650   29.6140 C.2     1  UNL1        0.0717
      3 O           1.4200   16.0320   30.8620 O.co2   1  UNL1       -0.5446
      4 C           3.1630   16.9540   29.5400 C.ar    1  UNL1       -0.0026
      5 C           3.0890   18.3390   29.3410 C.ar    1  UNL1       -0.0509
      6 C           4.2580   19.0980   29.2070 C.ar    1  UNL1       -0.0357
      7 C           5.5090   18.4660   29.2570 C.ar    1  UNL1        0.0654
      8 N           6.7040   19.2070   29.0350 N.ar    1  UNL1       -0.2390
      9 C           7.7360   19.3570   29.9240 C.ar    1  UNL1        0.0365
     10 C           8.7190   20.0840   29.2960 C.ar    1  UNL1        0.0153
     11 C          10.0410   20.4250   29.8890 C.3     1  UNL1        0.0379
     12 N          10.4560   19.5060   30.9450 N.pl3   1  UNL1       -0.3395
     13 C          11.7330   19.6290   31.4910 C.ar    1  UNL1        0.0306
     14 C          12.4990   18.5360   31.9040 C.ar    1  UNL1       -0.0056
     15 C          13.7950   18.7130   32.3670 C.ar    1  UNL1        0.1257
     16 F          14.4990   17.6480   32.7670 F       1  UNL1       -0.2054
     17 C          14.3760   19.9720   32.4180 C.ar    1  UNL1       -0.0147
     18 C          13.6530   21.0830   31.9740 C.ar    1  UNL1        0.0593
     19 C          14.2560   22.4630   32.0000 C.3     1  UNL1        0.4176
     20 F          15.3680   22.5860   31.2230 F       1  UNL1       -0.1659
     21 F          13.3910   23.4200   31.5690 F       1  UNL1       -0.1659
     22 F          14.6350   22.8360   33.2540 F       1  UNL1       -0.1659
     23 C          12.3430   20.8940   31.4970 C.ar    1  UNL1       -0.0290
     24 C           8.1750   20.4060   28.0180 C.ar    1  UNL1        0.0978
     25 C           8.7720   21.2340   26.9590 C.ar    1  UNL1        0.0026
     26 C           8.6100   20.8990   25.6020 C.ar    1  UNL1       -0.0498
     27 C           9.1650   21.6870   24.5920 C.ar    1  UNL1       -0.0258
     28 C           9.9090   22.8050   24.9330 C.ar    1  UNL1        0.1234
     29 F          10.4560   23.5530   23.9660 F       1  UNL1       -0.2055
     30 C          10.1020   23.1530   26.2650 C.ar    1  UNL1       -0.0258
     31 C           9.5320   22.3700   27.2770 C.ar    1  UNL1       -0.0498
     32 N           6.9690   19.8280   27.8600 N.ar    1  UNL1       -0.1661
     33 C           5.5730   17.0800   29.4800 C.ar    1  UNL1       -0.0357
     34 C           4.4080   16.3250   29.6060 C.ar    1  UNL1       -0.0509
     35 H           2.1073   18.8327   29.2898 H       1  UNL1        0.0625
     36 H           4.1953   20.1867   29.0629 H       1  UNL1        0.0639
     37 H           7.7713   18.9670   30.9519 H       1  UNL1        0.0834
     38 H          10.7975   20.4036   29.0907 H       1  UNL1        0.0512
     39 H           9.9459   21.4219   30.3442 H       1  UNL1        0.0512
     40 H           9.8420   18.8080   31.2680 H       1  UNL1        0.1464
     41 H          12.0700   17.5240   31.8617 H       1  UNL1        0.0665
     42 H          15.3983   20.0950   32.8051 H       1  UNL1        0.0652
     43 H          11.7812   21.7607   31.1184 H       1  UNL1        0.0641
     44 H           8.0359   20.0003   25.3322 H       1  UNL1        0.0625
     45 H           9.0130   21.4227   23.5351 H       1  UNL1        0.0646
     46 H          10.6998   24.0395   26.5232 H       1  UNL1        0.0646
     47 H           9.6815   22.6482   28.3307 H       1  UNL1        0.0625
     48 H           6.5527   16.5857   29.5559 H       1  UNL1        0.0639
     49 H           4.4692   15.2371   29.7570 H       1  UNL1        0.0625
@<TRIPOS>UNITY_ATOM_ATTR
3 1
charge -1
@<TRIPOS>BOND
     1     1     2   ar
     2     2     3   ar
     3     2     4    1
     4     4     5   ar
     5     5     6   ar
     6     6     7   ar
     7     7     8    1
     8     8     9   ar
     9     9    10   ar
    10    10    11    1
    11    11    12    1
    12    12    13    1
    13    13    14   ar
    14    14    15   ar
    15    15    16    1
    16    15    17   ar
    17    17    18   ar
    18    18    19    1
    19    19    20    1
    20    19    21    1
    21    19    22    1
    22    18    23   ar
    23    10    24   ar
    24    24    25    1
    25    25    26   ar
    26    26    27   ar
    27    27    28   ar
    28    28    29    1
    29    28    30   ar
    30    30    31   ar
    31    24    32   ar
    32     7    33   ar
    33    33    34   ar
    34    34     4   ar
    35    32     8   ar
    36    23    13   ar
    37    31    25   ar
    38     5    35    1
    39     6    36    1
    40     9    37    1
    41    11    38    1
    42    11    39    1
    43    12    40    1
    44    14    41    1
    45    17    42    1
    46    23    43    1
    47    26    44    1
    48    27    45    1
    49    30    46    1
    50    31    47    1
    51    33    48    1
    52    34    49    1
@<TRIPOS>MOLECULE
25sa23_out
 49 52 0 0 0
SMALL
GASTEIGER

@<TRIPOS>ATOM
      1 O           5.6060   19.2110   26.3640 O.co2   1  UNL1       -0.5446
      2 C           5.8500   20.1250   27.1340 C.2     1  UNL1        0.0717
      3 O           5.1030   21.2440   27.2180 O.co2   1  UNL1       -0.5446
      4 C           7.0100   20.1060   28.0580 C.ar    1  UNL1       -0.0026
      5 C           8.2330   20.6410   27.6320 C.ar    1  UNL1       -0.0509
      6 C           9.3600   20.5800   28.4620 C.ar    1  UNL1       -0.0357
      7 C           9.2670   19.9660   29.7190 C.ar    1  UNL1        0.0654
      8 N          10.4210   19.8160   30.5390 N.ar    1  UNL1       -0.2390
      9 C          10.8070   18.6710   31.1850 C.ar    1  UNL1        0.0365
     10 C          12.0040   18.9310   31.8070 C.ar    1  UNL1        0.0153
     11 C          12.8020   17.9380   32.5760 C.3     1  UNL1        0.0379
     12 N          14.1450   18.4060   32.9060 N.pl3   1  UNL1       -0.3395
     13 C          14.6260   18.2340   34.2050 C.ar    1  UNL1        0.0306
     14 C          14.9980   19.2970   35.0310 C.ar    1  UNL1       -0.0056
     15 C          15.3950   19.0710   36.3410 C.ar    1  UNL1        0.1257
     16 F          15.7580   20.1080   37.1040 F       1  UNL1       -0.2054
     17 C          15.4160   17.7910   36.8760 C.ar    1  UNL1       -0.0147
     18 C          15.0100   16.7080   36.0910 C.ar    1  UNL1        0.0593
     19 C          15.0060   15.3070   36.6420 C.3     1  UNL1        0.4176
     20 F          15.8270   14.4540   35.9680 F       1  UNL1       -0.1659
     21 F          15.3980   15.2550   37.9440 F       1  UNL1       -0.1659
     22 F          13.7670   14.7410   36.6000 F       1  UNL1       -0.1659
     23 C          14.6010   16.9470   34.7660 C.ar    1  UNL1       -0.0290
     24 C          12.2600   20.3090   31.5430 C.ar    1  UNL1        0.0978
     25 C          13.3740   21.1360   32.0330 C.ar    1  UNL1        0.0026
     26 C          13.2410   21.9090   33.2000 C.ar    1  UNL1       -0.0498
     27 C          14.2980   22.6880   33.6760 C.ar    1  UNL1       -0.0258
     28 C          15.4910   22.7180   32.9720 C.ar    1  UNL1        0.1234
     29 F          16.5000   23.4770   33.4180 F       1  UNL1       -0.2055
     30 C          15.6480   21.9780   31.8060 C.ar    1  UNL1       -0.0258
     31 C          14.5920   21.1860   31.3380 C.ar    1  UNL1       -0.0498
     32 N          11.3110   20.8180   30.7350 N.ar    1  UNL1       -0.1661
     33 C           8.0300   19.4530   30.1460 C.ar    1  UNL1       -0.0357
     34 C           6.9120   19.5080   29.3160 C.ar    1  UNL1       -0.0509
     35 H           8.3086   21.1114   26.6405 H       1  UNL1        0.0625
     36 H          10.3149   21.0125   28.1285 H       1  UNL1        0.0639
     37 H          10.2586   17.7176   31.2024 H       1  UNL1        0.0834
     38 H          12.2707   17.7135   33.5127 H       1  UNL1        0.0512
     39 H          12.9148   17.0481   31.9393 H       1  UNL1        0.0512
     40 H          14.7050   18.8380   32.2220 H       1  UNL1        0.1464
     41 H          14.9760   20.3244   34.6387 H       1  UNL1        0.0665
     42 H          15.7501   17.6294   37.9115 H       1  UNL1        0.0652
     43 H          14.2522   16.1028   34.1531 H       1  UNL1        0.0641
     44 H          12.2872   21.9000   33.7480 H       1  UNL1        0.0625
     45 H          14.1844   23.2722   34.6011 H       1  UNL1        0.0646
     46 H          16.5981   22.0143   31.2528 H       1  UNL1        0.0646
     47 H          14.7185   20.5977   30.4172 H       1  UNL1        0.0625
     48 H           7.9435   19.0033   31.1461 H       1  UNL1        0.0639
     49 H           5.9549   19.0815   29.6509 H       1  UNL1        0.0625
@<TRIPOS>UNITY_ATOM_ATTR
3 1
charge -1
@<TRIPOS>BOND
     1     1     2   ar
     2     2     3   ar
     3     2     4    1
     4     4     5   ar
     5     5     6   ar
     6     6     7   ar
     7     7     8    1
     8     8     9   ar
     9     9    10   ar
    10    10    11    1
    11    11    12    1
    12    12    13    1
    13    13    14   ar
    14    14    15   ar
    15    15    16    1
    16    15    17   ar
    17    17    18   ar
    18    18    19    1
    19    19    20    1
    20    19    21    1
    21    19    22    1
    22    18    23   ar
    23    10    24   ar
    24    24    25    1
    25    25    26   ar
    26    26    27   ar
    27    27    28   ar
    28    28    29    1
    29    28    30   ar
    30    30    31   ar
    31    24    32   ar
    32     7    33   ar
    33    33    34   ar
    34    34     4   ar
    35    32     8   ar
    36    23    13   ar
    37    31    25   ar
    38     5    35    1
    39     6    36    1
    40     9    37    1
    41    11    38    1
    42    11    39    1
    43    12    40    1
    44    14    41    1
    45    17    42    1
    46    23    43    1
    47    26    44    1
    48    27    45    1
    49    30    46    1
    50    31    47    1
    51    33    48    1
    52    34    49    1
