@<TRIPOS>MOLECULE
LIG
   41    44     1     0     0
SMALL
bcc


@<TRIPOS>ATOM
      1 C1          14.5010    15.7440    36.9520 c3         1 LIG      -0.356300
      2 S1          14.2710    15.6250    35.1970 sy         1 LIG       1.401300
      3 O1          14.5500    16.9240    34.6150 o          1 LIG      -0.659800
      4 O2          14.9590    14.4370    34.7290 o          1 LIG      -0.659800
      5 C2          12.5250    15.3310    35.0350 ca         1 LIG      -0.403500
      6 C3          11.7530    15.0860    36.1710 ca         1 LIG      -0.030000
      7 C4          10.3760    14.8550    36.0410 ca         1 LIG      -0.114000
      8 C5           9.7790    14.8500    34.7620 ca         1 LIG       0.173400
      9 N1           8.4370    14.6500    34.4790 nc         1 LIG      -0.602100
     10 C6           8.2530    14.6460    33.1810 cd         1 LIG       0.424800
     11 N2           7.0130    14.4530    32.6260 ns         1 LIG      -0.446400
     12 C7           6.7040    14.4130    31.2840 c          1 LIG       0.677100
     13 O3           7.4930    14.5650    30.3520 o          1 LIG      -0.573100
     14 C8           5.2280    14.2140    30.9670 c3         1 LIG      -0.172700
     15 C9           4.6230    15.3230    30.1690 cc         1 LIG       0.343600
     16 C10          3.5010    16.0620    30.5000 cd         1 LIG      -0.268400
     17 S2           3.2190    17.2660    29.3130 ss         1 LIG      -0.059300
     18 C11          4.5680    16.7000    28.4410 cd         1 LIG       0.521900
     19 N3           4.9300    17.3030    27.2270 na         1 LIG      -0.104900
     20 C12          4.9810    16.6520    26.0030 cc         1 LIG      -0.136800
     21 C13          5.3600    17.5410    25.0220 cd         1 LIG      -0.177500
     22 C14          5.5780    18.7840    25.6500 cd         1 LIG      -0.177500
     23 C15          5.3070    18.6170    26.9900 cc         1 LIG      -0.136800
     24 N4           5.2230    15.6850    28.9670 nc         1 LIG      -0.671000
     25 S3           9.6290    14.9600    32.2310 ss         1 LIG       0.112900
     26 C16         10.5920    15.0640    33.6460 ca         1 LIG      -0.190100
     27 C17         11.9680    15.3110    33.7530 ca         1 LIG       0.054000
     28 H1          13.6370    15.2970    37.4660 h1         1 LIG       0.112700
     29 H2          15.4170    15.2070    37.2390 h1         1 LIG       0.112700
     30 H3          14.5910    16.8020    37.2390 h1         1 LIG       0.112700
     31 H4          12.2230    15.0740    37.1660 ha         1 LIG       0.154000
     32 H5           9.7610    14.6780    36.9360 ha         1 LIG       0.158000
     33 H6           6.2650    14.3290    33.2530 hn         1 LIG       0.349500
     34 H7           5.1200    13.2790    30.3980 hc         1 LIG       0.098700
     35 H8           4.6960    14.1880    31.9300 hc         1 LIG       0.098700
     36 H9           2.8810    15.9000    31.3940 h4         1 LIG       0.190000
     37 H10          4.7530    15.5880    25.8410 h4         1 LIG       0.180000
     38 H11          5.4720    17.3220    23.9500 ha         1 LIG       0.161500
     39 H12          5.9040    19.7140    25.1610 ha         1 LIG       0.161500
     40 H13          5.3780    19.4040    27.7550 h4         1 LIG       0.180000
     41 H14         12.5870    15.4830    32.8600 ha         1 LIG       0.160000
@<TRIPOS>BOND
     1     1     2 1   
     2     1    28 1   
     3     1    29 1   
     4     1    30 1   
     5     2     3 2   
     6     2     4 2   
     7     2     5 1   
     8     5     6 ar  
     9     6     7 ar  
    10     6    31 1   
    11     7     8 ar  
    12     7    32 1   
    13     8     9 1   
    14     9    10 2   
    15    10    11 1   
    16    10    25 1   
    17    11    12 1   
    18    11    33 1   
    19    12    13 2   
    20    12    14 1   
    21    14    15 1   
    22    14    34 1   
    23    14    35 1   
    24    15    16 2   
    25    16    17 1   
    26    16    36 1   
    27    17    18 1   
    28    18    19 1   
    29    18    24 2   
    30    19    20 1   
    31    20    21 2   
    32    20    37 1   
    33    21    22 1   
    34    21    38 1   
    35    22    23 2   
    36    22    39 1   
    37    23    19 1   
    38    23    40 1   
    39    24    15 1   
    40    25    26 1   
    41    26    27 ar  
    42    26     8 ar  
    43    27     5 ar  
    44    27    41 1   
@<TRIPOS>SUBSTRUCTURE
     1 LIG         1 TEMP              0 ****  ****    0 ROOT
