@<TRIPOS>MOLECULE
LIG
   46    49     1     0     0
SMALL
bcc


@<TRIPOS>ATOM
      1 O1          15.3040    18.1600    33.1110 o          1 LIG      -0.820300
      2 C1          14.5780    19.1310    33.2010 c          1 LIG       0.908200
      3 O2          14.7940    20.1430    34.0690 o          1 LIG      -0.820300
      4 C2          13.3530    19.3020    32.3820 ca         1 LIG      -0.110600
      5 C3          13.0560    20.5700    31.8660 ca         1 LIG      -0.102000
      6 C4          11.8900    20.7740    31.1180 ca         1 LIG      -0.146500
      7 C5          11.0040    19.7100    30.8960 ca         1 LIG      -0.047200
      8 N1           9.7910    19.9230    30.1780 na         1 LIG       0.215300
      9 C6           8.5250    19.6230    30.6110 cc         1 LIG      -0.140300
     10 C7           7.6450    20.0680    29.6530 cd         1 LIG      -0.307600
     11 C8           6.1590    20.0460    29.7610 c3         1 LIG       0.262100
     12 N2           5.6110    18.8060    30.3120 nu         1 LIG      -0.715600
     13 C9           4.9200    17.9540    29.4430 ca         1 LIG       0.169600
     14 C10          3.7730    17.2950    29.9070 ca         1 LIG      -0.186000
     15 C11          3.0740    16.4090    29.0820 ca         1 LIG       0.059400
     16 Cl1          1.6430    15.6530    29.6650 cl         1 LIG      -0.097900
     17 C12          3.5190    16.1350    27.7940 ca         1 LIG      -0.168000
     18 C13          4.6880    16.7380    27.3470 ca         1 LIG       0.059400
     19 Cl2          5.2810    16.3920    25.7690 cl         1 LIG      -0.097900
     20 C14          5.3900    17.6240    28.1650 ca         1 LIG      -0.186000
     21 C15          8.4710    20.5630    28.6010 cd         1 LIG       0.345800
     22 C16          8.0550    21.1050    27.2980 ca         1 LIG      -0.109500
     23 C17          7.4090    20.2920    26.3490 ca         1 LIG      -0.092500
     24 C18          6.9860    20.8100    25.1230 ca         1 LIG      -0.170500
     25 C19          7.2270    22.1430    24.8270 ca         1 LIG       0.113900
     26 F1           6.8300    22.6400    23.6490 f          1 LIG      -0.149900
     27 C20          7.8850    22.9650    25.7360 ca         1 LIG      -0.170500
     28 C21          8.2970    22.4470    26.9690 ca         1 LIG      -0.092500
     29 N3           9.7680    20.5040    28.9540 nc         1 LIG      -0.487800
     30 C22         11.3080    18.4420    31.4190 ca         1 LIG      -0.146500
     31 C23         12.4700    18.2410    32.1660 ca         1 LIG      -0.102000
     32 H1          13.7420    21.4100    32.0490 ha         1 LIG       0.162500
     33 H2          11.6690    21.7690    30.7040 ha         1 LIG       0.125000
     34 H3           8.2620    19.1190    31.5520 h4         1 LIG       0.181000
     35 H4           5.8490    20.8780    30.4110 h1         1 LIG       0.063700
     36 H5           5.7690    20.1340    28.7360 h1         1 LIG       0.063700
     37 H6           5.7250    18.5780    31.2630 hn         1 LIG       0.396800
     38 H7           3.4190    17.4770    30.9320 ha         1 LIG       0.153500
     39 H8           2.9560    15.4530    27.1400 ha         1 LIG       0.157000
     40 H9           6.3270    18.0700    27.8010 ha         1 LIG       0.153500
     41 H10          7.2340    19.2300    26.5760 ha         1 LIG       0.150000
     42 H11          6.4660    20.1660    24.3980 ha         1 LIG       0.145000
     43 H12          8.0810    24.0180    25.4870 ha         1 LIG       0.145000
     44 H13          8.8160    23.0990    27.6870 ha         1 LIG       0.150000
     45 H14         10.6240    17.6000    31.2380 ha         1 LIG       0.125000
     46 H15         12.6900    17.2480    32.5840 ha         1 LIG       0.162500
@<TRIPOS>BOND
     1     1     2 1   
     2     2     3 1   
     3     2     4 1   
     4     4     5 ar  
     5     5     6 ar  
     6     5    32 1   
     7     6     7 ar  
     8     6    33 1   
     9     7     8 1   
    10     7    30 ar  
    11     8     9 1   
    12     9    10 2   
    13     9    34 1   
    14    10    11 1   
    15    10    21 1   
    16    11    12 1   
    17    11    35 1   
    18    11    36 1   
    19    12    13 1   
    20    12    37 1   
    21    13    14 ar  
    22    14    15 ar  
    23    14    38 1   
    24    15    16 1   
    25    15    17 ar  
    26    17    18 ar  
    27    17    39 1   
    28    18    19 1   
    29    18    20 ar  
    30    20    13 ar  
    31    20    40 1   
    32    21    22 1   
    33    21    29 2   
    34    22    23 ar  
    35    23    24 ar  
    36    23    41 1   
    37    24    25 ar  
    38    24    42 1   
    39    25    26 1   
    40    25    27 ar  
    41    27    28 ar  
    42    27    43 1   
    43    28    22 ar  
    44    28    44 1   
    45    29     8 1   
    46    30    31 ar  
    47    30    45 1   
    48    31     4 ar  
    49    31    46 1   
@<TRIPOS>SUBSTRUCTURE
     1 LIG         1 TEMP              0 ****  ****    0 ROOT
