9sa23_out
     RDKit          3D

 46 49  0  0  0  0  0  0  0  0999 V2000
    6.0640   14.0670   30.6130 O   0  0  0  0  0  0  0  0  0  0  0  0
    6.3030   14.2570   31.7920 C   0  0  0  0  0  0  0  0  0  0  0  0
    5.3720   14.1300   32.7600 O   0  0  0  0  0  0  0  0  0  0  0  0
    7.6600   14.6080   32.2900 C   0  0  0  0  0  0  0  0  0  0  0  0
    8.0390   14.4970   33.6350 C   0  0  0  0  0  0  0  0  0  0  0  0
    9.3160   14.9080   34.0450 C   0  0  0  0  0  0  0  0  0  0  0  0
   10.2140   15.4590   33.1190 C   0  0  0  0  0  0  0  0  0  0  0  0
   11.4720   15.9690   33.5490 N   0  0  0  0  0  0  0  0  0  0  0  0
   12.2750   16.8450   32.8680 C   0  0  0  0  0  0  0  0  0  0  0  0
   13.3220   17.1790   33.6970 C   0  0  0  0  0  0  0  0  0  0  0  0
   14.3670   18.2030   33.4120 C   0  0  0  0  0  0  0  0  0  0  0  0
   14.1460   19.4890   34.0660 N   0  0  0  0  0  0  0  0  0  0  0  0
   14.6500   19.6780   35.3580 C   0  0  0  0  0  0  0  0  0  0  0  0
   15.9620   19.3500   35.7240 C   0  0  0  0  0  0  0  0  0  0  0  0
   16.4470   19.6120   37.0090 C   0  0  0  0  0  0  0  0  0  0  0  0
   15.6320   20.2380   37.9450 C   0  0  0  0  0  0  0  0  0  0  0  0
   14.3450   20.6210   37.5790 C   0  0  0  0  0  0  0  0  0  0  0  0
   13.2420   21.5060   38.8350 Br  0  0  0  0  0  0  0  0  0  0  0  0
   13.8630   20.3610   36.2950 C   0  0  0  0  0  0  0  0  0  0  0  0
   13.1460   16.3600   34.8520 C   0  0  0  0  0  0  0  0  0  0  0  0
   14.0290   16.2420   36.0250 C   0  0  0  0  0  0  0  0  0  0  0  0
   13.6670   16.8080   37.2600 C   0  0  0  0  0  0  0  0  0  0  0  0
   14.4920   16.6890   38.3820 C   0  0  0  0  0  0  0  0  0  0  0  0
   15.7010   16.0230   38.2690 C   0  0  0  0  0  0  0  0  0  0  0  0
   16.5000   15.9200   39.3390 F   0  0  0  0  0  0  0  0  0  0  0  0
   16.0960   15.4680   37.0570 C   0  0  0  0  0  0  0  0  0  0  0  0
   15.2620   15.5760   35.9370 C   0  0  0  0  0  0  0  0  0  0  0  0
   11.9930   15.6690   34.7680 N   0  0  0  0  0  0  0  0  0  0  0  0
    9.8330   15.5520   31.7700 C   0  0  0  0  0  0  0  0  0  0  0  0
    8.5650   15.1300   31.3620 C   0  0  0  0  0  0  0  0  0  0  0  0
    7.3326   14.0862   34.3714 H   0  0  0  0  0  0  0  0  0  0  0  0
    9.6146   14.7976   35.0979 H   0  0  0  0  0  0  0  0  0  0  0  0
   12.1128   17.2145   31.8447 H   0  0  0  0  0  0  0  0  0  0  0  0
   15.3367   17.8079   33.7491 H   0  0  0  0  0  0  0  0  0  0  0  0
   14.3337   18.3921   32.3289 H   0  0  0  0  0  0  0  0  0  0  0  0
   13.6520   20.2080   33.6090 H   0  0  0  0  0  0  0  0  0  0  0  0
   16.6246   18.8763   34.9847 H   0  0  0  0  0  0  0  0  0  0  0  0
   17.4733   19.3228   37.2792 H   0  0  0  0  0  0  0  0  0  0  0  0
   16.0002   20.4286   38.9639 H   0  0  0  0  0  0  0  0  0  0  0  0
   12.8533   20.6962   36.0153 H   0  0  0  0  0  0  0  0  0  0  0  0
   12.7164   17.3549   37.3449 H   0  0  0  0  0  0  0  0  0  0  0  0
   14.1838   17.1203   39.3458 H   0  0  0  0  0  0  0  0  0  0  0  0
   17.0608   14.9456   36.9779 H   0  0  0  0  0  0  0  0  0  0  0  0
   15.5759   15.1349   34.9794 H   0  0  0  0  0  0  0  0  0  0  0  0
   10.5375   15.9597   31.0301 H   0  0  0  0  0  0  0  0  0  0  0  0
    8.2773   15.2092   30.3033 H   0  0  0  0  0  0  0  0  0  0  0  0
  1  2  2  0
  2  3  1  0
  2  4  1  0
  4  5  2  0
  5  6  1  0
  6  7  2  0
  7  8  1  0
  8  9  1  0
  9 10  2  0
 10 11  1  0
 11 12  1  0
 12 13  1  0
 13 14  2  0
 14 15  1  0
 15 16  2  0
 16 17  1  0
 17 18  1  0
 17 19  2  0
 10 20  1  0
 20 21  1  0
 21 22  2  0
 22 23  1  0
 23 24  2  0
 24 25  1  0
 24 26  1  0
 26 27  2  0
 20 28  2  0
  7 29  1  0
 29 30  2  0
 30  4  1  0
 28  8  1  0
 19 13  1  0
 27 21  1  0
  5 31  1  0
  6 32  1  0
  9 33  1  0
 11 34  1  0
 11 35  1  0
 12 36  1  0
 14 37  1  0
 15 38  1  0
 16 39  1  0
 19 40  1  0
 22 41  1  0
 23 42  1  0
 26 43  1  0
 27 44  1  0
 29 45  1  0
 30 46  1  0
M  CHG  1   3  -1
M  END
>  <meeko>  (1) 
{"is_sidechain": [false], "free_energy": -7.157, "intermolecular_energy": -9.668, "internal_energy": -2.254}

> <PREPARED_BY>
siam chowdhury
Computational and Medicinal Chemistry
[Dr. Alam's Research Team] www.alamresearch.org
Arkansas State University

$$$$
9sa23_out
     RDKit          3D

 46 49  0  0  0  0  0  0  0  0999 V2000
    5.2540   14.2140   32.1140 O   0  0  0  0  0  0  0  0  0  0  0  0
    6.2640   14.2910   31.4370 C   0  0  0  0  0  0  0  0  0  0  0  0
    6.2580   14.1740   30.0940 O   0  0  0  0  0  0  0  0  0  0  0  0
    7.6020   14.5670   32.0230 C   0  0  0  0  0  0  0  0  0  0  0  0
    7.8560   14.5540   33.4020 C   0  0  0  0  0  0  0  0  0  0  0  0
    9.1290   14.8890   33.8890 C   0  0  0  0  0  0  0  0  0  0  0  0
   10.1490   15.2670   33.0030 C   0  0  0  0  0  0  0  0  0  0  0  0
   11.4100   15.7050   33.5000 N   0  0  0  0  0  0  0  0  0  0  0  0
   12.2440   15.0120   34.3360 C   0  0  0  0  0  0  0  0  0  0  0  0
   13.4080   15.7360   34.4540 C   0  0  0  0  0  0  0  0  0  0  0  0
   14.6420   15.2940   35.1660 C   0  0  0  0  0  0  0  0  0  0  0  0
   14.4500   15.0100   36.5850 N   0  0  0  0  0  0  0  0  0  0  0  0
   14.8940   15.9500   37.5220 C   0  0  0  0  0  0  0  0  0  0  0  0
   16.0540   15.7770   38.2900 C   0  0  0  0  0  0  0  0  0  0  0  0
   16.4970   16.7680   39.1710 C   0  0  0  0  0  0  0  0  0  0  0  0
   15.8010   17.9660   39.2770 C   0  0  0  0  0  0  0  0  0  0  0  0
   14.6790   18.1750   38.4810 C   0  0  0  0  0  0  0  0  0  0  0  0
   13.7470   19.8160   38.5920 Br  0  0  0  0  0  0  0  0  0  0  0  0
   14.2380   17.1860   37.5990 C   0  0  0  0  0  0  0  0  0  0  0  0
   13.1600   16.9430   33.7350 C   0  0  0  0  0  0  0  0  0  0  0  0
   14.0360   18.1200   33.6050 C   0  0  0  0  0  0  0  0  0  0  0  0
   14.2540   18.9820   34.6950 C   0  0  0  0  0  0  0  0  0  0  0  0
   15.0940   20.0930   34.5850 C   0  0  0  0  0  0  0  0  0  0  0  0
   15.7050   20.3650   33.3730 C   0  0  0  0  0  0  0  0  0  0  0  0
   16.4990   21.4380   33.2600 F   0  0  0  0  0  0  0  0  0  0  0  0
   15.4950   19.5430   32.2700 C   0  0  0  0  0  0  0  0  0  0  0  0
   14.6640   18.4230   32.3860 C   0  0  0  0  0  0  0  0  0  0  0  0
   11.9630   16.8870   33.1210 N   0  0  0  0  0  0  0  0  0  0  0  0
    9.8910   15.2630   31.6230 C   0  0  0  0  0  0  0  0  0  0  0  0
    8.6270   14.9160   31.1390 C   0  0  0  0  0  0  0  0  0  0  0  0
    7.0549   14.2803   34.1044 H   0  0  0  0  0  0  0  0  0  0  0  0
    9.3279   14.8550   34.9703 H   0  0  0  0  0  0  0  0  0  0  0  0
   12.0236   14.0513   34.8244 H   0  0  0  0  0  0  0  0  0  0  0  0
   15.0114   14.3795   34.6789 H   0  0  0  0  0  0  0  0  0  0  0  0
   15.3552   16.1293   35.1065 H   0  0  0  0  0  0  0  0  0  0  0  0
   14.0170   14.1740   36.8760 H   0  0  0  0  0  0  0  0  0  0  0  0
   16.6272   14.8427   38.1976 H   0  0  0  0  0  0  0  0  0  0  0  0
   17.3970   16.5993   39.7806 H   0  0  0  0  0  0  0  0  0  0  0  0
   16.1336   18.7412   39.9830 H   0  0  0  0  0  0  0  0  0  0  0  0
   13.3657   17.3794   36.9574 H   0  0  0  0  0  0  0  0  0  0  0  0
   13.7533   18.7773   35.6528 H   0  0  0  0  0  0  0  0  0  0  0  0
   15.2682   20.7454   35.4533 H   0  0  0  0  0  0  0  0  0  0  0  0
   15.9806   19.7728   31.3101 H   0  0  0  0  0  0  0  0  0  0  0  0
   14.5010   17.7733   31.5134 H   0  0  0  0  0  0  0  0  0  0  0  0
   10.6899   15.5351   30.9175 H   0  0  0  0  0  0  0  0  0  0  0  0
    8.4373   14.9175   30.0555 H   0  0  0  0  0  0  0  0  0  0  0  0
  1  2  2  0
  2  3  1  0
  2  4  1  0
  4  5  2  0
  5  6  1  0
  6  7  2  0
  7  8  1  0
  8  9  1  0
  9 10  2  0
 10 11  1  0
 11 12  1  0
 12 13  1  0
 13 14  2  0
 14 15  1  0
 15 16  2  0
 16 17  1  0
 17 18  1  0
 17 19  2  0
 10 20  1  0
 20 21  1  0
 21 22  2  0
 22 23  1  0
 23 24  2  0
 24 25  1  0
 24 26  1  0
 26 27  2  0
 20 28  2  0
  7 29  1  0
 29 30  2  0
 30  4  1  0
 28  8  1  0
 19 13  1  0
 27 21  1  0
  5 31  1  0
  6 32  1  0
  9 33  1  0
 11 34  1  0
 11 35  1  0
 12 36  1  0
 14 37  1  0
 15 38  1  0
 16 39  1  0
 19 40  1  0
 22 41  1  0
 23 42  1  0
 26 43  1  0
 27 44  1  0
 29 45  1  0
 30 46  1  0
M  CHG  1   3  -1
M  END
>  <meeko>  (2) 
{"is_sidechain": [false], "free_energy": -7.118, "intermolecular_energy": -10.55, "internal_energy": -1.319}

> <PREPARED_BY>
siam chowdhury
Computational and Medicinal Chemistry
[Dr. Alam's Research Team] www.alamresearch.org
Arkansas State University

$$$$
9sa23_out
     RDKit          3D

 46 49  0  0  0  0  0  0  0  0999 V2000
    5.2880   13.9100   32.2030 O   0  0  0  0  0  0  0  0  0  0  0  0
    6.2450   14.1480   31.4880 C   0  0  0  0  0  0  0  0  0  0  0  0
    6.1770   14.1340   30.1420 O   0  0  0  0  0  0  0  0  0  0  0  0
    7.5780   14.5210   32.0300 C   0  0  0  0  0  0  0  0  0  0  0  0
    7.8700   14.5540   33.4020 C   0  0  0  0  0  0  0  0  0  0  0  0
    9.1310   14.9800   33.8450 C   0  0  0  0  0  0  0  0  0  0  0  0
   10.1010   15.4030   32.9240 C   0  0  0  0  0  0  0  0  0  0  0  0
   11.3440   15.9300   33.3760 N   0  0  0  0  0  0  0  0  0  0  0  0
   12.0920   16.8990   32.7620 C   0  0  0  0  0  0  0  0  0  0  0  0
   13.1410   17.2060   33.5990 C   0  0  0  0  0  0  0  0  0  0  0  0
   14.1330   18.2980   33.3890 C   0  0  0  0  0  0  0  0  0  0  0  0
   13.6730   19.3700   32.5120 N   0  0  0  0  0  0  0  0  0  0  0  0
   13.6500   20.6790   33.0090 C   0  0  0  0  0  0  0  0  0  0  0  0
   13.0410   21.7440   32.3330 C   0  0  0  0  0  0  0  0  0  0  0  0
   12.9850   23.0240   32.8930 C   0  0  0  0  0  0  0  0  0  0  0  0
   13.5140   23.2540   34.1570 C   0  0  0  0  0  0  0  0  0  0  0  0
   14.0740   22.1940   34.8640 C   0  0  0  0  0  0  0  0  0  0  0  0
   14.7630   22.4890   36.6000 Br  0  0  0  0  0  0  0  0  0  0  0  0
   14.1260   20.9150   34.3060 C   0  0  0  0  0  0  0  0  0  0  0  0
   13.0270   16.2790   34.6790 C   0  0  0  0  0  0  0  0  0  0  0  0
   13.9410   16.0970   35.8200 C   0  0  0  0  0  0  0  0  0  0  0  0
   13.7070   16.7520   37.0420 C   0  0  0  0  0  0  0  0  0  0  0  0
   14.5590   16.5740   38.1350 C   0  0  0  0  0  0  0  0  0  0  0  0
   15.6710   15.7590   38.0040 C   0  0  0  0  0  0  0  0  0  0  0  0
   16.4990   15.5990   39.0450 F   0  0  0  0  0  0  0  0  0  0  0  0
   15.9410   15.1130   36.8020 C   0  0  0  0  0  0  0  0  0  0  0  0
   15.0780   15.2810   35.7130 C   0  0  0  0  0  0  0  0  0  0  0  0
   11.9050   15.5470   34.5530 N   0  0  0  0  0  0  0  0  0  0  0  0
    9.8060   15.3510   31.5520 C   0  0  0  0  0  0  0  0  0  0  0  0
    8.5550   14.9150   31.1110 C   0  0  0  0  0  0  0  0  0  0  0  0
    7.1078   14.2449   34.1324 H   0  0  0  0  0  0  0  0  0  0  0  0
    9.3606   14.9824   34.9208 H   0  0  0  0  0  0  0  0  0  0  0  0
   11.8912   17.3499   31.7790 H   0  0  0  0  0  0  0  0  0  0  0  0
   14.3758   18.7353   34.3687 H   0  0  0  0  0  0  0  0  0  0  0  0
   15.0035   17.8408   32.8959 H   0  0  0  0  0  0  0  0  0  0  0  0
   13.3850   19.1780   31.5900 H   0  0  0  0  0  0  0  0  0  0  0  0
   12.5978   21.5698   31.3414 H   0  0  0  0  0  0  0  0  0  0  0  0
   12.5218   23.8494   32.3325 H   0  0  0  0  0  0  0  0  0  0  0  0
   13.4905   24.2631   34.5943 H   0  0  0  0  0  0  0  0  0  0  0  0
   14.5453   20.0832   34.8910 H   0  0  0  0  0  0  0  0  0  0  0  0
   12.8365   17.4173   37.1394 H   0  0  0  0  0  0  0  0  0  0  0  0
   14.3485   17.0765   39.0906 H   0  0  0  0  0  0  0  0  0  0  0  0
   16.8300   14.4721   36.7077 H   0  0  0  0  0  0  0  0  0  0  0  0
   15.2930   14.7684   34.7638 H   0  0  0  0  0  0  0  0  0  0  0  0
   10.5669   15.6563   30.8186 H   0  0  0  0  0  0  0  0  0  0  0  0
    8.3368   14.8813   30.0334 H   0  0  0  0  0  0  0  0  0  0  0  0
  1  2  2  0
  2  3  1  0
  2  4  1  0
  4  5  2  0
  5  6  1  0
  6  7  2  0
  7  8  1  0
  8  9  1  0
  9 10  2  0
 10 11  1  0
 11 12  1  0
 12 13  1  0
 13 14  2  0
 14 15  1  0
 15 16  2  0
 16 17  1  0
 17 18  1  0
 17 19  2  0
 10 20  1  0
 20 21  1  0
 21 22  2  0
 22 23  1  0
 23 24  2  0
 24 25  1  0
 24 26  1  0
 26 27  2  0
 20 28  2  0
  7 29  1  0
 29 30  2  0
 30  4  1  0
 28  8  1  0
 19 13  1  0
 27 21  1  0
  5 31  1  0
  6 32  1  0
  9 33  1  0
 11 34  1  0
 11 35  1  0
 12 36  1  0
 14 37  1  0
 15 38  1  0
 16 39  1  0
 19 40  1  0
 22 41  1  0
 23 42  1  0
 26 43  1  0
 27 44  1  0
 29 45  1  0
 30 46  1  0
M  CHG  1   3  -1
M  END
>  <meeko>  (3) 
{"is_sidechain": [false], "free_energy": -6.555, "intermolecular_energy": -10.007, "internal_energy": -1.1}

> <PREPARED_BY>
siam chowdhury
Computational and Medicinal Chemistry
[Dr. Alam's Research Team] www.alamresearch.org
Arkansas State University

$$$$
9sa23_out
     RDKit          3D

 46 49  0  0  0  0  0  0  0  0999 V2000
    5.3280   13.8720   32.1980 O   0  0  0  0  0  0  0  0  0  0  0  0
    6.2470   14.2430   31.4900 C   0  0  0  0  0  0  0  0  0  0  0  0
    6.1280   14.4060   30.1570 O   0  0  0  0  0  0  0  0  0  0  0  0
    7.5860   14.5950   32.0330 C   0  0  0  0  0  0  0  0  0  0  0  0
    7.8830   14.6000   33.4030 C   0  0  0  0  0  0  0  0  0  0  0  0
    9.1500   15.0080   33.8490 C   0  0  0  0  0  0  0  0  0  0  0  0
   10.1190   15.4390   32.9310 C   0  0  0  0  0  0  0  0  0  0  0  0
   11.3690   15.9480   33.3870 N   0  0  0  0  0  0  0  0  0  0  0  0
   12.1400   16.8960   32.7680 C   0  0  0  0  0  0  0  0  0  0  0  0
   13.1880   17.1910   33.6100 C   0  0  0  0  0  0  0  0  0  0  0  0
   14.2030   18.2630   33.3960 C   0  0  0  0  0  0  0  0  0  0  0  0
   14.6930   18.8830   34.6230 N   0  0  0  0  0  0  0  0  0  0  0  0
   14.2530   20.1720   34.9440 C   0  0  0  0  0  0  0  0  0  0  0  0
   13.9440   21.1390   33.9780 C   0  0  0  0  0  0  0  0  0  0  0  0
   13.4480   22.3950   34.3390 C   0  0  0  0  0  0  0  0  0  0  0  0
   13.2210   22.6950   35.6770 C   0  0  0  0  0  0  0  0  0  0  0  0
   13.4710   21.7260   36.6440 C   0  0  0  0  0  0  0  0  0  0  0  0
   13.1310   22.1130   38.4630 Br  0  0  0  0  0  0  0  0  0  0  0  0
   13.9640   20.4710   36.2820 C   0  0  0  0  0  0  0  0  0  0  0  0
   13.0480   16.2800   34.6990 C   0  0  0  0  0  0  0  0  0  0  0  0
   13.9490   16.0940   35.8500 C   0  0  0  0  0  0  0  0  0  0  0  0
   15.1580   15.3900   35.7130 C   0  0  0  0  0  0  0  0  0  0  0  0
   16.0260   15.2210   36.7950 C   0  0  0  0  0  0  0  0  0  0  0  0
   15.6760   15.7330   38.0330 C   0  0  0  0  0  0  0  0  0  0  0  0
   16.4970   15.5590   39.0770 F   0  0  0  0  0  0  0  0  0  0  0  0
   14.4770   16.4170   38.2060 C   0  0  0  0  0  0  0  0  0  0  0  0
   13.6160   16.5980   37.1170 C   0  0  0  0  0  0  0  0  0  0  0  0
   11.9130   15.5670   34.5730 N   0  0  0  0  0  0  0  0  0  0  0  0
    9.8190   15.4160   31.5600 C   0  0  0  0  0  0  0  0  0  0  0  0
    8.5620   14.9970   31.1170 C   0  0  0  0  0  0  0  0  0  0  0  0
    7.1212   14.2833   34.1305 H   0  0  0  0  0  0  0  0  0  0  0  0
    9.3840   14.9896   34.9237 H   0  0  0  0  0  0  0  0  0  0  0  0
   11.9553   17.3403   31.7788 H   0  0  0  0  0  0  0  0  0  0  0  0
   15.0610   17.8236   32.8662 H   0  0  0  0  0  0  0  0  0  0  0  0
   13.7045   19.0569   32.8205 H   0  0  0  0  0  0  0  0  0  0  0  0
   15.3210   18.4050   35.2120 H   0  0  0  0  0  0  0  0  0  0  0  0
   14.0949   20.9049   32.9138 H   0  0  0  0  0  0  0  0  0  0  0  0
   13.2372   23.1464   33.5637 H   0  0  0  0  0  0  0  0  0  0  0  0
   12.8477   23.6878   35.9685 H   0  0  0  0  0  0  0  0  0  0  0  0
   14.1276   19.7075   37.0568 H   0  0  0  0  0  0  0  0  0  0  0  0
   15.4260   14.9638   34.7350 H   0  0  0  0  0  0  0  0  0  0  0  0
   16.9784   14.6863   36.6645 H   0  0  0  0  0  0  0  0  0  0  0  0
   14.2063   16.8144   39.1953 H   0  0  0  0  0  0  0  0  0  0  0  0
   12.6692   17.1405   37.2556 H   0  0  0  0  0  0  0  0  0  0  0  0
   10.5789   15.7301   30.8293 H   0  0  0  0  0  0  0  0  0  0  0  0
    8.3390   14.9834   30.0399 H   0  0  0  0  0  0  0  0  0  0  0  0
  1  2  2  0
  2  3  1  0
  2  4  1  0
  4  5  2  0
  5  6  1  0
  6  7  2  0
  7  8  1  0
  8  9  1  0
  9 10  2  0
 10 11  1  0
 11 12  1  0
 12 13  1  0
 13 14  2  0
 14 15  1  0
 15 16  2  0
 16 17  1  0
 17 18  1  0
 17 19  2  0
 10 20  1  0
 20 21  1  0
 21 22  2  0
 22 23  1  0
 23 24  2  0
 24 25  1  0
 24 26  1  0
 26 27  2  0
 20 28  2  0
  7 29  1  0
 29 30  2  0
 30  4  1  0
 28  8  1  0
 19 13  1  0
 27 21  1  0
  5 31  1  0
  6 32  1  0
  9 33  1  0
 11 34  1  0
 11 35  1  0
 12 36  1  0
 14 37  1  0
 15 38  1  0
 16 39  1  0
 19 40  1  0
 22 41  1  0
 23 42  1  0
 26 43  1  0
 27 44  1  0
 29 45  1  0
 30 46  1  0
M  CHG  1   3  -1
M  END
>  <meeko>  (4) 
{"is_sidechain": [false], "free_energy": -6.465, "intermolecular_energy": -9.925, "internal_energy": -1.061}

> <PREPARED_BY>
siam chowdhury
Computational and Medicinal Chemistry
[Dr. Alam's Research Team] www.alamresearch.org
Arkansas State University

$$$$
9sa23_out
     RDKit          3D

 46 49  0  0  0  0  0  0  0  0999 V2000
   15.2900   18.2440   33.2770 O   0  0  0  0  0  0  0  0  0  0  0  0
   14.6430   19.2760   33.2770 C   0  0  0  0  0  0  0  0  0  0  0  0
   14.9680   20.3460   34.0300 O   0  0  0  0  0  0  0  0  0  0  0  0
   13.4510   19.4750   32.4110 C   0  0  0  0  0  0  0  0  0  0  0  0
   13.0790   20.7210   31.8880 C   0  0  0  0  0  0  0  0  0  0  0  0
   11.9040   20.8470   31.1310 C   0  0  0  0  0  0  0  0  0  0  0  0
   11.0770   19.7350   30.9160 C   0  0  0  0  0  0  0  0  0  0  0  0
    9.8340   19.8800   30.2360 N   0  0  0  0  0  0  0  0  0  0  0  0
    8.6090   19.4470   30.6700 C   0  0  0  0  0  0  0  0  0  0  0  0
    7.6670   19.9110   29.7800 C   0  0  0  0  0  0  0  0  0  0  0  0
    6.1890   19.7840   29.9310 C   0  0  0  0  0  0  0  0  0  0  0  0
    5.7070   18.4100   30.0230 N   0  0  0  0  0  0  0  0  0  0  0  0
    5.4730   17.7020   28.8380 C   0  0  0  0  0  0  0  0  0  0  0  0
    5.0610   16.3630   28.8140 C   0  0  0  0  0  0  0  0  0  0  0  0
    4.7770   15.7100   27.6110 C   0  0  0  0  0  0  0  0  0  0  0  0
    4.8710   16.3990   26.4080 C   0  0  0  0  0  0  0  0  0  0  0  0
    5.2260   17.7440   26.4190 C   0  0  0  0  0  0  0  0  0  0  0  0
    5.3210   18.6980   24.7890 Br  0  0  0  0  0  0  0  0  0  0  0  0
    5.5060   18.3960   27.6210 C   0  0  0  0  0  0  0  0  0  0  0  0
    8.4220   20.5360   28.7430 C   0  0  0  0  0  0  0  0  0  0  0  0
    7.9260   21.1280   27.4890 C   0  0  0  0  0  0  0  0  0  0  0  0
    8.5400   20.8310   26.2590 C   0  0  0  0  0  0  0  0  0  0  0  0
    8.0680   21.3770   25.0620 C   0  0  0  0  0  0  0  0  0  0  0  0
    6.9910   22.2480   25.0910 C   0  0  0  0  0  0  0  0  0  0  0  0
    6.5460   22.7850   23.9470 F   0  0  0  0  0  0  0  0  0  0  0  0
    6.3750   22.5770   26.2930 C   0  0  0  0  0  0  0  0  0  0  0  0
    6.8400   22.0180   27.4900 C   0  0  0  0  0  0  0  0  0  0  0  0
    9.7300   20.5530   29.0590 N   0  0  0  0  0  0  0  0  0  0  0  0
   11.4640   18.4870   31.4300 C   0  0  0  0  0  0  0  0  0  0  0  0
   12.6410   18.3600   32.1720 C   0  0  0  0  0  0  0  0  0  0  0  0
   13.7101   21.6031   32.0715 H   0  0  0  0  0  0  0  0  0  0  0  0
   11.6303   21.8231   30.7041 H   0  0  0  0  0  0  0  0  0  0  0  0
    8.4138   18.8395   31.5660 H   0  0  0  0  0  0  0  0  0  0  0  0
    5.8901   20.3152   30.8467 H   0  0  0  0  0  0  0  0  0  0  0  0
    5.7432   20.2121   29.0211 H   0  0  0  0  0  0  0  0  0  0  0  0
    5.5510   17.9890   30.8990 H   0  0  0  0  0  0  0  0  0  0  0  0
    4.9589   15.8140   29.7617 H   0  0  0  0  0  0  0  0  0  0  0  0
    4.4792   14.6511   27.6167 H   0  0  0  0  0  0  0  0  0  0  0  0
    4.6668   15.8861   25.4566 H   0  0  0  0  0  0  0  0  0  0  0  0
    5.7555   19.4673   27.6129 H   0  0  0  0  0  0  0  0  0  0  0  0
    9.4084   20.1561   26.2386 H   0  0  0  0  0  0  0  0  0  0  0  0
    8.5470   21.1177   24.1063 H   0  0  0  0  0  0  0  0  0  0  0  0
    5.5245   23.2746   26.3040 H   0  0  0  0  0  0  0  0  0  0  0  0
    6.3499   22.2786   28.4397 H   0  0  0  0  0  0  0  0  0  0  0  0
   10.8358   17.6027   31.2471 H   0  0  0  0  0  0  0  0  0  0  0  0
   12.9325   17.3771   32.5707 H   0  0  0  0  0  0  0  0  0  0  0  0
  1  2  2  0
  2  3  1  0
  2  4  1  0
  4  5  2  0
  5  6  1  0
  6  7  2  0
  7  8  1  0
  8  9  1  0
  9 10  2  0
 10 11  1  0
 11 12  1  0
 12 13  1  0
 13 14  2  0
 14 15  1  0
 15 16  2  0
 16 17  1  0
 17 18  1  0
 17 19  2  0
 10 20  1  0
 20 21  1  0
 21 22  2  0
 22 23  1  0
 23 24  2  0
 24 25  1  0
 24 26  1  0
 26 27  2  0
 20 28  2  0
  7 29  1  0
 29 30  2  0
 30  4  1  0
 28  8  1  0
 19 13  1  0
 27 21  1  0
  5 31  1  0
  6 32  1  0
  9 33  1  0
 11 34  1  0
 11 35  1  0
 12 36  1  0
 14 37  1  0
 15 38  1  0
 16 39  1  0
 19 40  1  0
 22 41  1  0
 23 42  1  0
 26 43  1  0
 27 44  1  0
 29 45  1  0
 30 46  1  0
M  CHG  1   3  -1
M  END
>  <meeko>  (5) 
{"is_sidechain": [false], "free_energy": -6.32, "intermolecular_energy": -9.398, "internal_energy": -1.392}

> <PREPARED_BY>
siam chowdhury
Computational and Medicinal Chemistry
[Dr. Alam's Research Team] www.alamresearch.org
Arkansas State University

$$$$
9sa23_out
     RDKit          3D

 46 49  0  0  0  0  0  0  0  0999 V2000
   15.3620   20.2900   33.8220 O   0  0  0  0  0  0  0  0  0  0  0  0
   14.8130   19.3570   33.2640 C   0  0  0  0  0  0  0  0  0  0  0  0
   15.2900   18.0960   33.2990 O   0  0  0  0  0  0  0  0  0  0  0  0
   13.5320   19.5070   32.5230 C   0  0  0  0  0  0  0  0  0  0  0  0
   12.6780   18.4330   32.2380 C   0  0  0  0  0  0  0  0  0  0  0  0
   11.5170   18.6380   31.4760 C   0  0  0  0  0  0  0  0  0  0  0  0
   11.2160   19.9110   30.9710 C   0  0  0  0  0  0  0  0  0  0  0  0
   10.0950   20.1010   30.1150 N   0  0  0  0  0  0  0  0  0  0  0  0
   10.0470   20.8840   28.9920 C   0  0  0  0  0  0  0  0  0  0  0  0
    8.8250   20.6760   28.3930 C   0  0  0  0  0  0  0  0  0  0  0  0
    8.3950   21.2270   27.0760 C   0  0  0  0  0  0  0  0  0  0  0  0
    7.5670   22.4250   27.1650 N   0  0  0  0  0  0  0  0  0  0  0  0
    6.1790   22.2750   27.2630 C   0  0  0  0  0  0  0  0  0  0  0  0
    5.4220   21.5320   26.3470 C   0  0  0  0  0  0  0  0  0  0  0  0
    4.0460   21.3550   26.5140 C   0  0  0  0  0  0  0  0  0  0  0  0
    3.4050   21.8940   27.6230 C   0  0  0  0  0  0  0  0  0  0  0  0
    4.1530   22.5880   28.5710 C   0  0  0  0  0  0  0  0  0  0  0  0
    3.2950   23.2940   30.1010 Br  0  0  0  0  0  0  0  0  0  0  0  0
    5.5280   22.7620   28.4040 C   0  0  0  0  0  0  0  0  0  0  0  0
    8.1210   19.8190   29.2910 C   0  0  0  0  0  0  0  0  0  0  0  0
    6.7300   19.3450   29.1920 C   0  0  0  0  0  0  0  0  0  0  0  0
    6.3140   18.5500   28.1090 C   0  0  0  0  0  0  0  0  0  0  0  0
    5.0010   18.0830   28.0130 C   0  0  0  0  0  0  0  0  0  0  0  0
    4.0830   18.4320   28.9910 C   0  0  0  0  0  0  0  0  0  0  0  0
    2.8190   17.9990   28.8940 F   0  0  0  0  0  0  0  0  0  0  0  0
    4.4580   19.2320   30.0650 C   0  0  0  0  0  0  0  0  0  0  0  0
    5.7780   19.6870   30.1660 C   0  0  0  0  0  0  0  0  0  0  0  0
    8.9220   19.4400   30.3050 N   0  0  0  0  0  0  0  0  0  0  0  0
   12.0690   20.9850   31.2750 C   0  0  0  0  0  0  0  0  0  0  0  0
   13.2170   20.7820   32.0440 C   0  0  0  0  0  0  0  0  0  0  0  0
   12.9180   17.4269   32.6123 H   0  0  0  0  0  0  0  0  0  0  0  0
   10.8396   17.7952   31.2739 H   0  0  0  0  0  0  0  0  0  0  0  0
   10.8404   21.5565   28.6340 H   0  0  0  0  0  0  0  0  0  0  0  0
    9.2962   21.4741   26.4957 H   0  0  0  0  0  0  0  0  0  0  0  0
    7.7764   20.4527   26.5987 H   0  0  0  0  0  0  0  0  0  0  0  0
    7.9770   23.3210   27.1560 H   0  0  0  0  0  0  0  0  0  0  0  0
    5.9216   21.0786   25.4782 H   0  0  0  0  0  0  0  0  0  0  0  0
    3.4699   20.7888   25.7673 H   0  0  0  0  0  0  0  0  0  0  0  0
    2.3191   21.7739   27.7507 H   0  0  0  0  0  0  0  0  0  0  0  0
    6.1072   23.2877   29.1774 H   0  0  0  0  0  0  0  0  0  0  0  0
    7.0371   18.2907   27.3217 H   0  0  0  0  0  0  0  0  0  0  0  0
    4.6987   17.4447   27.1697 H   0  0  0  0  0  0  0  0  0  0  0  0
    3.7196   19.5064   30.8328 H   0  0  0  0  0  0  0  0  0  0  0  0
    6.0725   20.3188   31.0169 H   0  0  0  0  0  0  0  0  0  0  0  0
   11.8310   21.9931   30.9047 H   0  0  0  0  0  0  0  0  0  0  0  0
   13.8776   21.6309   32.2743 H   0  0  0  0  0  0  0  0  0  0  0  0
  1  2  2  0
  2  3  1  0
  2  4  1  0
  4  5  2  0
  5  6  1  0
  6  7  2  0
  7  8  1  0
  8  9  1  0
  9 10  2  0
 10 11  1  0
 11 12  1  0
 12 13  1  0
 13 14  2  0
 14 15  1  0
 15 16  2  0
 16 17  1  0
 17 18  1  0
 17 19  2  0
 10 20  1  0
 20 21  1  0
 21 22  2  0
 22 23  1  0
 23 24  2  0
 24 25  1  0
 24 26  1  0
 26 27  2  0
 20 28  2  0
  7 29  1  0
 29 30  2  0
 30  4  1  0
 28  8  1  0
 19 13  1  0
 27 21  1  0
  5 31  1  0
  6 32  1  0
  9 33  1  0
 11 34  1  0
 11 35  1  0
 12 36  1  0
 14 37  1  0
 15 38  1  0
 16 39  1  0
 19 40  1  0
 22 41  1  0
 23 42  1  0
 26 43  1  0
 27 44  1  0
 29 45  1  0
 30 46  1  0
M  CHG  1   3  -1
M  END
>  <meeko>  (6) 
{"is_sidechain": [false], "free_energy": -6.309, "intermolecular_energy": -8.369, "internal_energy": -2.406}

> <PREPARED_BY>
siam chowdhury
Computational and Medicinal Chemistry
[Dr. Alam's Research Team] www.alamresearch.org
Arkansas State University

$$$$
9sa23_out
     RDKit          3D

 46 49  0  0  0  0  0  0  0  0999 V2000
    5.3820   13.9150   32.4660 O   0  0  0  0  0  0  0  0  0  0  0  0
    6.3100   14.2170   31.7370 C   0  0  0  0  0  0  0  0  0  0  0  0
    6.1940   14.3000   30.3970 O   0  0  0  0  0  0  0  0  0  0  0  0
    7.6570   14.5690   32.2590 C   0  0  0  0  0  0  0  0  0  0  0  0
    7.9780   14.5670   33.6240 C   0  0  0  0  0  0  0  0  0  0  0  0
    9.2520   14.9740   34.0500 C   0  0  0  0  0  0  0  0  0  0  0  0
   10.2040   15.4130   33.1180 C   0  0  0  0  0  0  0  0  0  0  0  0
   11.4600   15.9220   33.5560 N   0  0  0  0  0  0  0  0  0  0  0  0
   12.2590   16.8120   32.8880 C   0  0  0  0  0  0  0  0  0  0  0  0
   13.3050   17.1370   33.7210 C   0  0  0  0  0  0  0  0  0  0  0  0
   14.3460   18.1700   33.4520 C   0  0  0  0  0  0  0  0  0  0  0  0
   14.7500   18.9380   34.6250 N   0  0  0  0  0  0  0  0  0  0  0  0
   14.3030   20.2590   34.7470 C   0  0  0  0  0  0  0  0  0  0  0  0
   14.1360   20.9000   35.9820 C   0  0  0  0  0  0  0  0  0  0  0  0
   13.7460   22.2410   36.0590 C   0  0  0  0  0  0  0  0  0  0  0  0
   13.5460   22.9750   34.8960 C   0  0  0  0  0  0  0  0  0  0  0  0
   13.7610   22.3680   33.6620 C   0  0  0  0  0  0  0  0  0  0  0  0
   13.5260   23.3690   32.0760 Br  0  0  0  0  0  0  0  0  0  0  0  0
   14.1530   21.0300   33.5860 C   0  0  0  0  0  0  0  0  0  0  0  0
   13.1340   16.2980   34.8630 C   0  0  0  0  0  0  0  0  0  0  0  0
   14.0190   16.1640   36.0330 C   0  0  0  0  0  0  0  0  0  0  0  0
   13.6830   16.7550   37.2630 C   0  0  0  0  0  0  0  0  0  0  0  0
   14.5090   16.6210   38.3820 C   0  0  0  0  0  0  0  0  0  0  0  0
   15.6950   15.9150   38.2700 C   0  0  0  0  0  0  0  0  0  0  0  0
   16.4970   15.7990   39.3370 F   0  0  0  0  0  0  0  0  0  0  0  0
   16.0660   15.3350   37.0620 C   0  0  0  0  0  0  0  0  0  0  0  0
   15.2300   15.4580   35.9460 C   0  0  0  0  0  0  0  0  0  0  0  0
   11.9840   15.6040   34.7690 N   0  0  0  0  0  0  0  0  0  0  0  0
    9.8790   15.3980   31.7520 C   0  0  0  0  0  0  0  0  0  0  0  0
    8.6160   14.9800   31.3290 C   0  0  0  0  0  0  0  0  0  0  0  0
    7.2293   14.2456   34.3630 H   0  0  0  0  0  0  0  0  0  0  0  0
    9.5052   14.9486   35.1202 H   0  0  0  0  0  0  0  0  0  0  0  0
   12.0944   17.1968   31.8708 H   0  0  0  0  0  0  0  0  0  0  0  0
   15.2358   17.6648   33.0483 H   0  0  0  0  0  0  0  0  0  0  0  0
   13.9021   18.8865   32.7451 H   0  0  0  0  0  0  0  0  0  0  0  0
   15.3250   18.5370   35.3160 H   0  0  0  0  0  0  0  0  0  0  0  0
   14.3153   20.3370   36.9098 H   0  0  0  0  0  0  0  0  0  0  0  0
   13.5975   22.7149   37.0405 H   0  0  0  0  0  0  0  0  0  0  0  0
   13.2212   24.0246   34.9501 H   0  0  0  0  0  0  0  0  0  0  0  0
   14.3464   20.5755   32.6032 H   0  0  0  0  0  0  0  0  0  0  0  0
   12.7516   17.3343   37.3464 H   0  0  0  0  0  0  0  0  0  0  0  0
   14.2199   17.0720   39.3427 H   0  0  0  0  0  0  0  0  0  0  0  0
   17.0133   14.7814   36.9836 H   0  0  0  0  0  0  0  0  0  0  0  0
   15.5244   14.9972   34.9915 H   0  0  0  0  0  0  0  0  0  0  0  0
   10.6251   15.7180   31.0098 H   0  0  0  0  0  0  0  0  0  0  0  0
    8.3738   14.9741   30.2560 H   0  0  0  0  0  0  0  0  0  0  0  0
  1  2  2  0
  2  3  1  0
  2  4  1  0
  4  5  2  0
  5  6  1  0
  6  7  2  0
  7  8  1  0
  8  9  1  0
  9 10  2  0
 10 11  1  0
 11 12  1  0
 12 13  1  0
 13 14  2  0
 14 15  1  0
 15 16  2  0
 16 17  1  0
 17 18  1  0
 17 19  2  0
 10 20  1  0
 20 21  1  0
 21 22  2  0
 22 23  1  0
 23 24  2  0
 24 25  1  0
 24 26  1  0
 26 27  2  0
 20 28  2  0
  7 29  1  0
 29 30  2  0
 30  4  1  0
 28  8  1  0
 19 13  1  0
 27 21  1  0
  5 31  1  0
  6 32  1  0
  9 33  1  0
 11 34  1  0
 11 35  1  0
 12 36  1  0
 14 37  1  0
 15 38  1  0
 16 39  1  0
 19 40  1  0
 22 41  1  0
 23 42  1  0
 26 43  1  0
 27 44  1  0
 29 45  1  0
 30 46  1  0
M  CHG  1   3  -1
M  END
>  <meeko>  (7) 
{"is_sidechain": [false], "free_energy": -6.307, "intermolecular_energy": -9.773, "internal_energy": -1.0}

> <PREPARED_BY>
siam chowdhury
Computational and Medicinal Chemistry
[Dr. Alam's Research Team] www.alamresearch.org
Arkansas State University

$$$$
9sa23_out
     RDKit          3D

 46 49  0  0  0  0  0  0  0  0999 V2000
   15.7080   18.4140   32.8590 O   0  0  0  0  0  0  0  0  0  0  0  0
   14.6280   18.5760   33.3980 C   0  0  0  0  0  0  0  0  0  0  0  0
   14.4530   18.4890   34.7320 O   0  0  0  0  0  0  0  0  0  0  0  0
   13.3990   18.9300   32.6410 C   0  0  0  0  0  0  0  0  0  0  0  0
   12.4220   17.9930   32.2770 C   0  0  0  0  0  0  0  0  0  0  0  0
   11.3180   18.3860   31.5050 C   0  0  0  0  0  0  0  0  0  0  0  0
   11.1980   19.7130   31.0650 C   0  0  0  0  0  0  0  0  0  0  0  0
   10.1340   20.0920   30.1980 N   0  0  0  0  0  0  0  0  0  0  0  0
   10.2300   20.8850   29.0850 C   0  0  0  0  0  0  0  0  0  0  0  0
    9.0000   20.8840   28.4680 C   0  0  0  0  0  0  0  0  0  0  0  0
    8.6830   21.5130   27.1540 C   0  0  0  0  0  0  0  0  0  0  0  0
    8.2950   20.5670   26.1120 N   0  0  0  0  0  0  0  0  0  0  0  0
    6.9530   20.5170   25.7190 C   0  0  0  0  0  0  0  0  0  0  0  0
    6.2290   19.3210   25.6170 C   0  0  0  0  0  0  0  0  0  0  0  0
    4.8720   19.3180   25.2820 C   0  0  0  0  0  0  0  0  0  0  0  0
    4.2050   20.5190   25.0710 C   0  0  0  0  0  0  0  0  0  0  0  0
    4.8970   21.7170   25.2230 C   0  0  0  0  0  0  0  0  0  0  0  0
    3.9890   23.3570   24.9750 Br  0  0  0  0  0  0  0  0  0  0  0  0
    6.2520   21.7190   25.5610 C   0  0  0  0  0  0  0  0  0  0  0  0
    8.1530   20.1440   29.3460 C   0  0  0  0  0  0  0  0  0  0  0  0
    6.7050   19.9020   29.2230 C   0  0  0  0  0  0  0  0  0  0  0  0
    5.7990   20.9740   29.1490 C   0  0  0  0  0  0  0  0  0  0  0  0
    4.4250   20.7550   29.0170 C   0  0  0  0  0  0  0  0  0  0  0  0
    3.9440   19.4560   28.9870 C   0  0  0  0  0  0  0  0  0  0  0  0
    2.6260   19.2430   28.8770 F   0  0  0  0  0  0  0  0  0  0  0  0
    4.8130   18.3740   29.0790 C   0  0  0  0  0  0  0  0  0  0  0  0
    6.1900   18.5960   29.1960 C   0  0  0  0  0  0  0  0  0  0  0  0
    8.8680   19.6280   30.3640 N   0  0  0  0  0  0  0  0  0  0  0  0
   12.1730   20.6490   31.4470 C   0  0  0  0  0  0  0  0  0  0  0  0
   13.2630   20.2590   32.2270 C   0  0  0  0  0  0  0  0  0  0  0  0
   12.5211   16.9455   32.5978 H   0  0  0  0  0  0  0  0  0  0  0  0
   10.5431   17.6504   31.2436 H   0  0  0  0  0  0  0  0  0  0  0  0
   11.1269   21.4243   28.7463 H   0  0  0  0  0  0  0  0  0  0  0  0
    7.8543   22.2210   27.3022 H   0  0  0  0  0  0  0  0  0  0  0  0
    9.6062   22.0009   26.8080 H   0  0  0  0  0  0  0  0  0  0  0  0
    8.9640   19.9770   25.6930 H   0  0  0  0  0  0  0  0  0  0  0  0
    6.7395   18.3648   25.8045 H   0  0  0  0  0  0  0  0  0  0  0  0
    4.3317   18.3647   25.1853 H   0  0  0  0  0  0  0  0  0  0  0  0
    3.1423   20.5226   24.7871 H   0  0  0  0  0  0  0  0  0  0  0  0
    6.7749   22.6760   25.7048 H   0  0  0  0  0  0  0  0  0  0  0  0
    6.1787   22.0053   29.1959 H   0  0  0  0  0  0  0  0  0  0  0  0
    3.7322   21.6057   28.9377 H   0  0  0  0  0  0  0  0  0  0  0  0
    4.4194   17.3470   29.0599 H   0  0  0  0  0  0  0  0  0  0  0  0
    6.8756   17.7388   29.2675 H   0  0  0  0  0  0  0  0  0  0  0  0
   12.0769   21.6976   31.1290 H   0  0  0  0  0  0  0  0  0  0  0  0
   14.0201   21.0020   32.5180 H   0  0  0  0  0  0  0  0  0  0  0  0
  1  2  2  0
  2  3  1  0
  2  4  1  0
  4  5  2  0
  5  6  1  0
  6  7  2  0
  7  8  1  0
  8  9  1  0
  9 10  2  0
 10 11  1  0
 11 12  1  0
 12 13  1  0
 13 14  2  0
 14 15  1  0
 15 16  2  0
 16 17  1  0
 17 18  1  0
 17 19  2  0
 10 20  1  0
 20 21  1  0
 21 22  2  0
 22 23  1  0
 23 24  2  0
 24 25  1  0
 24 26  1  0
 26 27  2  0
 20 28  2  0
  7 29  1  0
 29 30  2  0
 30  4  1  0
 28  8  1  0
 19 13  1  0
 27 21  1  0
  5 31  1  0
  6 32  1  0
  9 33  1  0
 11 34  1  0
 11 35  1  0
 12 36  1  0
 14 37  1  0
 15 38  1  0
 16 39  1  0
 19 40  1  0
 22 41  1  0
 23 42  1  0
 26 43  1  0
 27 44  1  0
 29 45  1  0
 30 46  1  0
M  CHG  1   3  -1
M  END
>  <meeko>  (8) 
{"is_sidechain": [false], "free_energy": -6.292, "intermolecular_energy": -8.541, "internal_energy": -2.211}

> <PREPARED_BY>
siam chowdhury
Computational and Medicinal Chemistry
[Dr. Alam's Research Team] www.alamresearch.org
Arkansas State University

$$$$
9sa23_out
     RDKit          3D

 46 49  0  0  0  0  0  0  0  0999 V2000
   16.3850   23.0550   31.2310 O   0  0  0  0  0  0  0  0  0  0  0  0
   16.1040   22.0200   30.6540 C   0  0  0  0  0  0  0  0  0  0  0  0
   16.4070   21.7950   29.3590 O   0  0  0  0  0  0  0  0  0  0  0  0
   15.4350   20.8790   31.3330 C   0  0  0  0  0  0  0  0  0  0  0  0
   16.1200   19.7400   31.7790 C   0  0  0  0  0  0  0  0  0  0  0  0
   15.4140   18.6710   32.3530 C   0  0  0  0  0  0  0  0  0  0  0  0
   14.0160   18.7210   32.4600 C   0  0  0  0  0  0  0  0  0  0  0  0
   13.2890   17.5990   32.9490 N   0  0  0  0  0  0  0  0  0  0  0  0
   13.7320   16.6680   33.8510 C   0  0  0  0  0  0  0  0  0  0  0  0
   12.6720   15.8410   34.1470 C   0  0  0  0  0  0  0  0  0  0  0  0
   12.6680   14.7650   35.1790 C   0  0  0  0  0  0  0  0  0  0  0  0
   12.6300   15.2510   36.5550 N   0  0  0  0  0  0  0  0  0  0  0  0
   13.8150   15.7220   37.1320 C   0  0  0  0  0  0  0  0  0  0  0  0
   15.0680   15.1420   36.8910 C   0  0  0  0  0  0  0  0  0  0  0  0
   16.2360   15.6800   37.4380 C   0  0  0  0  0  0  0  0  0  0  0  0
   16.1740   16.8310   38.2140 C   0  0  0  0  0  0  0  0  0  0  0  0
   14.9440   17.4500   38.4180 C   0  0  0  0  0  0  0  0  0  0  0  0
   14.8560   19.0370   39.4420 Br  0  0  0  0  0  0  0  0  0  0  0  0
   13.7780   16.9130   37.8690 C   0  0  0  0  0  0  0  0  0  0  0  0
   11.6230   16.2690   33.2800 C   0  0  0  0  0  0  0  0  0  0  0  0
   10.2860   15.6760   33.1100 C   0  0  0  0  0  0  0  0  0  0  0  0
    9.6000   15.1180   34.2030 C   0  0  0  0  0  0  0  0  0  0  0  0
    8.3240   14.5660   34.0540 C   0  0  0  0  0  0  0  0  0  0  0  0
    7.7350   14.5450   32.8010 C   0  0  0  0  0  0  0  0  0  0  0  0
    6.5200   14.0020   32.6520 F   0  0  0  0  0  0  0  0  0  0  0  0
    8.3960   15.0710   31.6960 C   0  0  0  0  0  0  0  0  0  0  0  0
    9.6670   15.6360   31.8500 C   0  0  0  0  0  0  0  0  0  0  0  0
   11.9970   17.3670   32.5960 N   0  0  0  0  0  0  0  0  0  0  0  0
   13.3390   19.8730   32.0250 C   0  0  0  0  0  0  0  0  0  0  0  0
   14.0450   20.9410   31.4660 C   0  0  0  0  0  0  0  0  0  0  0  0
   17.2140   19.6838   31.6789 H   0  0  0  0  0  0  0  0  0  0  0  0
   15.9597   17.7896   32.7208 H   0  0  0  0  0  0  0  0  0  0  0  0
   14.7491   16.5946   34.2635 H   0  0  0  0  0  0  0  0  0  0  0  0
   11.7839   14.1320   35.0129 H   0  0  0  0  0  0  0  0  0  0  0  0
   13.6147   14.2166   35.0652 H   0  0  0  0  0  0  0  0  0  0  0  0
   11.7880   15.2470   37.0670 H   0  0  0  0  0  0  0  0  0  0  0  0
   15.1333   14.2447   36.2581 H   0  0  0  0  0  0  0  0  0  0  0  0
   17.2047   15.1922   37.2542 H   0  0  0  0  0  0  0  0  0  0  0  0
   17.0875   17.2487   38.6625 H   0  0  0  0  0  0  0  0  0  0  0  0
   12.8190   17.4311   38.0168 H   0  0  0  0  0  0  0  0  0  0  0  0
   10.0763   15.1156   35.1945 H   0  0  0  0  0  0  0  0  0  0  0  0
    7.7930   14.1523   34.9240 H   0  0  0  0  0  0  0  0  0  0  0  0
    7.9212   15.0430   30.7042 H   0  0  0  0  0  0  0  0  0  0  0  0
   10.1867   16.0532   30.9749 H   0  0  0  0  0  0  0  0  0  0  0  0
   12.2453   19.9343   32.1254 H   0  0  0  0  0  0  0  0  0  0  0  0
   13.5033   21.8368   31.1282 H   0  0  0  0  0  0  0  0  0  0  0  0
  1  2  2  0
  2  3  1  0
  2  4  1  0
  4  5  2  0
  5  6  1  0
  6  7  2  0
  7  8  1  0
  8  9  1  0
  9 10  2  0
 10 11  1  0
 11 12  1  0
 12 13  1  0
 13 14  2  0
 14 15  1  0
 15 16  2  0
 16 17  1  0
 17 18  1  0
 17 19  2  0
 10 20  1  0
 20 21  1  0
 21 22  2  0
 22 23  1  0
 23 24  2  0
 24 25  1  0
 24 26  1  0
 26 27  2  0
 20 28  2  0
  7 29  1  0
 29 30  2  0
 30  4  1  0
 28  8  1  0
 19 13  1  0
 27 21  1  0
  5 31  1  0
  6 32  1  0
  9 33  1  0
 11 34  1  0
 11 35  1  0
 12 36  1  0
 14 37  1  0
 15 38  1  0
 16 39  1  0
 19 40  1  0
 22 41  1  0
 23 42  1  0
 26 43  1  0
 27 44  1  0
 29 45  1  0
 30 46  1  0
M  CHG  1   3  -1
M  END
>  <meeko>  (9) 
{"is_sidechain": [false], "free_energy": -6.181, "intermolecular_energy": -9.791, "internal_energy": -0.812}

> <PREPARED_BY>
siam chowdhury
Computational and Medicinal Chemistry
[Dr. Alam's Research Team] www.alamresearch.org
Arkansas State University

$$$$
9sa23_out
     RDKit          3D

 46 49  0  0  0  0  0  0  0  0999 V2000
   15.1450   20.0920   33.9920 O   0  0  0  0  0  0  0  0  0  0  0  0
   14.6440   19.1950   33.3380 C   0  0  0  0  0  0  0  0  0  0  0  0
   15.0820   17.9210   33.3820 O   0  0  0  0  0  0  0  0  0  0  0  0
   13.4660   19.4080   32.4550 C   0  0  0  0  0  0  0  0  0  0  0  0
   13.1290   20.6550   31.9090 C   0  0  0  0  0  0  0  0  0  0  0  0
   11.9660   20.7960   31.1370 C   0  0  0  0  0  0  0  0  0  0  0  0
   11.1160   19.6990   30.9290 C   0  0  0  0  0  0  0  0  0  0  0  0
    9.8850   19.8630   30.2320 N   0  0  0  0  0  0  0  0  0  0  0  0
    8.6630   19.3680   30.6040 C   0  0  0  0  0  0  0  0  0  0  0  0
    7.7280   19.8710   29.7290 C   0  0  0  0  0  0  0  0  0  0  0  0
    6.2510   19.6960   29.8360 C   0  0  0  0  0  0  0  0  0  0  0  0
    5.6720   18.8230   28.8200 N   0  0  0  0  0  0  0  0  0  0  0  0
    4.8760   17.7490   29.2340 C   0  0  0  0  0  0  0  0  0  0  0  0
    3.4770   17.7560   29.1520 C   0  0  0  0  0  0  0  0  0  0  0  0
    2.7210   16.6390   29.5190 C   0  0  0  0  0  0  0  0  0  0  0  0
    3.3570   15.4800   29.9480 C   0  0  0  0  0  0  0  0  0  0  0  0
    4.7480   15.4390   29.9830 C   0  0  0  0  0  0  0  0  0  0  0  0
    5.6210   13.8540   30.5310 Br  0  0  0  0  0  0  0  0  0  0  0  0
    5.5020   16.5540   29.6130 C   0  0  0  0  0  0  0  0  0  0  0  0
    8.4880   20.5900   28.7580 C   0  0  0  0  0  0  0  0  0  0  0  0
    8.0030   21.2600   27.5400 C   0  0  0  0  0  0  0  0  0  0  0  0
    7.6110   22.6100   27.5660 C   0  0  0  0  0  0  0  0  0  0  0  0
    7.1630   23.2590   26.4110 C   0  0  0  0  0  0  0  0  0  0  0  0
    7.0800   22.5510   25.2240 C   0  0  0  0  0  0  0  0  0  0  0  0
    6.6360   23.1650   24.1190 F   0  0  0  0  0  0  0  0  0  0  0  0
    7.4420   21.2090   25.1690 C   0  0  0  0  0  0  0  0  0  0  0  0
    7.9030   20.5650   26.3240 C   0  0  0  0  0  0  0  0  0  0  0  0
    9.7880   20.6180   29.1060 N   0  0  0  0  0  0  0  0  0  0  0  0
   11.4690   18.4510   31.4660 C   0  0  0  0  0  0  0  0  0  0  0  0
   12.6350   18.3090   32.2220 C   0  0  0  0  0  0  0  0  0  0  0  0
   13.7783   21.5250   32.0865 H   0  0  0  0  0  0  0  0  0  0  0  0
   11.7192   21.7715   30.6925 H   0  0  0  0  0  0  0  0  0  0  0  0
    8.4653   18.6915   31.4486 H   0  0  0  0  0  0  0  0  0  0  0  0
    6.0258   19.2697   30.8247 H   0  0  0  0  0  0  0  0  0  0  0  0
    5.8055   20.6905   29.6861 H   0  0  0  0  0  0  0  0  0  0  0  0
    5.8380   18.9860   27.8630 H   0  0  0  0  0  0  0  0  0  0  0  0
    2.9632   18.6593   28.7913 H   0  0  0  0  0  0  0  0  0  0  0  0
    1.6228   16.6772   29.4683 H   0  0  0  0  0  0  0  0  0  0  0  0
    2.7673   14.6042   30.2567 H   0  0  0  0  0  0  0  0  0  0  0  0
    6.6003   16.4938   29.6190 H   0  0  0  0  0  0  0  0  0  0  0  0
    7.6576   23.1668   28.5136 H   0  0  0  0  0  0  0  0  0  0  0  0
    6.8794   24.3213   26.4452 H   0  0  0  0  0  0  0  0  0  0  0  0
    7.3664   20.6555   24.2214 H   0  0  0  0  0  0  0  0  0  0  0  0
    8.1897   19.5040   26.2781 H   0  0  0  0  0  0  0  0  0  0  0  0
   10.8227   17.5784   31.2902 H   0  0  0  0  0  0  0  0  0  0  0  0
   12.9008   17.3255   32.6367 H   0  0  0  0  0  0  0  0  0  0  0  0
  1  2  2  0
  2  3  1  0
  2  4  1  0
  4  5  2  0
  5  6  1  0
  6  7  2  0
  7  8  1  0
  8  9  1  0
  9 10  2  0
 10 11  1  0
 11 12  1  0
 12 13  1  0
 13 14  2  0
 14 15  1  0
 15 16  2  0
 16 17  1  0
 17 18  1  0
 17 19  2  0
 10 20  1  0
 20 21  1  0
 21 22  2  0
 22 23  1  0
 23 24  2  0
 24 25  1  0
 24 26  1  0
 26 27  2  0
 20 28  2  0
  7 29  1  0
 29 30  2  0
 30  4  1  0
 28  8  1  0
 19 13  1  0
 27 21  1  0
  5 31  1  0
  6 32  1  0
  9 33  1  0
 11 34  1  0
 11 35  1  0
 12 36  1  0
 14 37  1  0
 15 38  1  0
 16 39  1  0
 19 40  1  0
 22 41  1  0
 23 42  1  0
 26 43  1  0
 27 44  1  0
 29 45  1  0
 30 46  1  0
M  CHG  1   3  -1
M  END
>  <meeko>  (10) 
{"is_sidechain": [false], "free_energy": -6.114, "intermolecular_energy": -9.453, "internal_energy": -1.058}

> <PREPARED_BY>
siam chowdhury
Computational and Medicinal Chemistry
[Dr. Alam's Research Team] www.alamresearch.org
Arkansas State University

$$$$
9sa23_out
     RDKit          3D

 46 49  0  0  0  0  0  0  0  0999 V2000
   13.6780   16.9130   34.6240 O   0  0  0  0  0  0  0  0  0  0  0  0
   14.0560   17.6560   33.7360 C   0  0  0  0  0  0  0  0  0  0  0  0
   15.3570   17.9310   33.5130 O   0  0  0  0  0  0  0  0  0  0  0  0
   13.1200   18.3020   32.7790 C   0  0  0  0  0  0  0  0  0  0  0  0
   13.2540   19.6300   32.3480 C   0  0  0  0  0  0  0  0  0  0  0  0
   12.2960   20.1960   31.4930 C   0  0  0  0  0  0  0  0  0  0  0  0
   11.1810   19.4480   31.0850 C   0  0  0  0  0  0  0  0  0  0  0  0
   10.1560   20.0500   30.3010 N   0  0  0  0  0  0  0  0  0  0  0  0
   10.3170   21.0320   29.3600 C   0  0  0  0  0  0  0  0  0  0  0  0
    9.0990   21.2240   28.7490 C   0  0  0  0  0  0  0  0  0  0  0  0
    8.8430   22.1090   27.5760 C   0  0  0  0  0  0  0  0  0  0  0  0
    8.5490   21.3960   26.3370 N   0  0  0  0  0  0  0  0  0  0  0  0
    7.2120   21.1310   26.0170 C   0  0  0  0  0  0  0  0  0  0  0  0
    6.2340   22.1300   25.9250 C   0  0  0  0  0  0  0  0  0  0  0  0
    4.9230   21.8320   25.5430 C   0  0  0  0  0  0  0  0  0  0  0  0
    4.5740   20.5270   25.2150 C   0  0  0  0  0  0  0  0  0  0  0  0
    5.5470   19.5330   25.2490 C   0  0  0  0  0  0  0  0  0  0  0  0
    5.0900   17.7620   24.7700 Br  0  0  0  0  0  0  0  0  0  0  0  0
    6.8570   19.8330   25.6280 C   0  0  0  0  0  0  0  0  0  0  0  0
    8.1960   20.3850   29.4660 C   0  0  0  0  0  0  0  0  0  0  0  0
    6.7380   20.2610   29.2930 C   0  0  0  0  0  0  0  0  0  0  0  0
    6.1550   19.0300   28.9430 C   0  0  0  0  0  0  0  0  0  0  0  0
    4.7720   18.9000   28.7910 C   0  0  0  0  0  0  0  0  0  0  0  0
    3.9620   20.0110   28.9620 C   0  0  0  0  0  0  0  0  0  0  0  0
    2.6380   19.8930   28.8010 F   0  0  0  0  0  0  0  0  0  0  0  0
    4.5100   21.2460   29.2890 C   0  0  0  0  0  0  0  0  0  0  0  0
    5.8940   21.3720   29.4550 C   0  0  0  0  0  0  0  0  0  0  0  0
    8.8610   19.6420   30.3710 N   0  0  0  0  0  0  0  0  0  0  0  0
   11.0620   18.1140   31.5080 C   0  0  0  0  0  0  0  0  0  0  0  0
   12.0240   17.5490   32.3480 C   0  0  0  0  0  0  0  0  0  0  0  0
   14.1134   20.2302   32.6815 H   0  0  0  0  0  0  0  0  0  0  0  0
   12.4196   21.2308   31.1410 H   0  0  0  0  0  0  0  0  0  0  0  0
   11.2498   21.5693   29.1339 H   0  0  0  0  0  0  0  0  0  0  0  0
    7.9851   22.7553   27.8131 H   0  0  0  0  0  0  0  0  0  0  0  0
    9.7699   22.6748   27.4008 H   0  0  0  0  0  0  0  0  0  0  0  0
    9.2760   21.1080   25.7380 H   0  0  0  0  0  0  0  0  0  0  0  0
    6.5036   23.1706   26.1583 H   0  0  0  0  0  0  0  0  0  0  0  0
    4.1673   22.6302   25.5019 H   0  0  0  0  0  0  0  0  0  0  0  0
    3.5396   20.2828   24.9316 H   0  0  0  0  0  0  0  0  0  0  0  0
    7.6196   19.0403   25.6210 H   0  0  0  0  0  0  0  0  0  0  0  0
    6.7999   18.1528   28.7859 H   0  0  0  0  0  0  0  0  0  0  0  0
    4.3305   17.9248   28.5380 H   0  0  0  0  0  0  0  0  0  0  0  0
    3.8574   22.1222   29.4170 H   0  0  0  0  0  0  0  0  0  0  0  0
    6.3248   22.3502   29.7148 H   0  0  0  0  0  0  0  0  0  0  0  0
   10.2050   17.5100   31.1753 H   0  0  0  0  0  0  0  0  0  0  0  0
   11.9185   16.5034   32.6730 H   0  0  0  0  0  0  0  0  0  0  0  0
  1  2  2  0
  2  3  1  0
  2  4  1  0
  4  5  2  0
  5  6  1  0
  6  7  2  0
  7  8  1  0
  8  9  1  0
  9 10  2  0
 10 11  1  0
 11 12  1  0
 12 13  1  0
 13 14  2  0
 14 15  1  0
 15 16  2  0
 16 17  1  0
 17 18  1  0
 17 19  2  0
 10 20  1  0
 20 21  1  0
 21 22  2  0
 22 23  1  0
 23 24  2  0
 24 25  1  0
 24 26  1  0
 26 27  2  0
 20 28  2  0
  7 29  1  0
 29 30  2  0
 30  4  1  0
 28  8  1  0
 19 13  1  0
 27 21  1  0
  5 31  1  0
  6 32  1  0
  9 33  1  0
 11 34  1  0
 11 35  1  0
 12 36  1  0
 14 37  1  0
 15 38  1  0
 16 39  1  0
 19 40  1  0
 22 41  1  0
 23 42  1  0
 26 43  1  0
 27 44  1  0
 29 45  1  0
 30 46  1  0
M  CHG  1   3  -1
M  END
>  <meeko>  (11) 
{"is_sidechain": [false], "free_energy": -5.821, "intermolecular_energy": -7.884, "internal_energy": -2.232}

> <PREPARED_BY>
siam chowdhury
Computational and Medicinal Chemistry
[Dr. Alam's Research Team] www.alamresearch.org
Arkansas State University

$$$$
9sa23_out
     RDKit          3D

 46 49  0  0  0  0  0  0  0  0999 V2000
   15.5950   20.0510   33.0690 O   0  0  0  0  0  0  0  0  0  0  0  0
   14.8050   19.1420   32.8870 C   0  0  0  0  0  0  0  0  0  0  0  0
   15.0580   17.8670   33.2430 O   0  0  0  0  0  0  0  0  0  0  0  0
   13.4600   19.3560   32.2900 C   0  0  0  0  0  0  0  0  0  0  0  0
   12.5340   18.3230   32.0890 C   0  0  0  0  0  0  0  0  0  0  0  0
   11.3070   18.5860   31.4600 C   0  0  0  0  0  0  0  0  0  0  0  0
   11.0090   19.8780   31.0020 C   0  0  0  0  0  0  0  0  0  0  0  0
    9.8110   20.1270   30.2740 N   0  0  0  0  0  0  0  0  0  0  0  0
    9.6220   21.0840   29.3120 C   0  0  0  0  0  0  0  0  0  0  0  0
    8.3700   20.8900   28.7740 C   0  0  0  0  0  0  0  0  0  0  0  0
    7.7990   21.6230   27.6080 C   0  0  0  0  0  0  0  0  0  0  0  0
    8.0010   20.9620   26.3230 N   0  0  0  0  0  0  0  0  0  0  0  0
    6.8930   20.4000   25.6780 C   0  0  0  0  0  0  0  0  0  0  0  0
    6.2340   21.0190   24.6070 C   0  0  0  0  0  0  0  0  0  0  0  0
    5.1690   20.3960   23.9500 C   0  0  0  0  0  0  0  0  0  0  0  0
    4.7630   19.1240   24.3350 C   0  0  0  0  0  0  0  0  0  0  0  0
    5.4420   18.4730   25.3600 C   0  0  0  0  0  0  0  0  0  0  0  0
    4.9200   16.7280   25.8660 Br  0  0  0  0  0  0  0  0  0  0  0  0
    6.5080   19.0950   26.0140 C   0  0  0  0  0  0  0  0  0  0  0  0
    7.7970   19.8430   29.5560 C   0  0  0  0  0  0  0  0  0  0  0  0
    6.4340   19.2890   29.4740 C   0  0  0  0  0  0  0  0  0  0  0  0
    6.2070   17.9080   29.6050 C   0  0  0  0  0  0  0  0  0  0  0  0
    4.9170   17.3750   29.5430 C   0  0  0  0  0  0  0  0  0  0  0  0
    3.8430   18.2210   29.3210 C   0  0  0  0  0  0  0  0  0  0  0  0
    2.6060   17.7120   29.2450 F   0  0  0  0  0  0  0  0  0  0  0  0
    4.0360   19.5900   29.1680 C   0  0  0  0  0  0  0  0  0  0  0  0
    5.3280   20.1230   29.2440 C   0  0  0  0  0  0  0  0  0  0  0  0
    8.7010   19.3570   30.4280 N   0  0  0  0  0  0  0  0  0  0  0  0
   11.9360   20.9110   31.2210 C   0  0  0  0  0  0  0  0  0  0  0  0
   13.1500   20.6490   31.8600 C   0  0  0  0  0  0  0  0  0  0  0  0
   12.7697   17.3026   32.4254 H   0  0  0  0  0  0  0  0  0  0  0  0
   10.5758   17.7753   31.3256 H   0  0  0  0  0  0  0  0  0  0  0  0
   10.3401   21.8652   29.0223 H   0  0  0  0  0  0  0  0  0  0  0  0
    6.7170   21.7373   27.7698 H   0  0  0  0  0  0  0  0  0  0  0  0
    8.3283   22.5857   27.5525 H   0  0  0  0  0  0  0  0  0  0  0  0
    8.8970   20.9120   25.9180 H   0  0  0  0  0  0  0  0  0  0  0  0
    6.5617   22.0157   24.2766 H   0  0  0  0  0  0  0  0  0  0  0  0
    4.6521   20.9128   23.1280 H   0  0  0  0  0  0  0  0  0  0  0  0
    3.9133   18.6368   23.8344 H   0  0  0  0  0  0  0  0  0  0  0  0
    7.0519   18.5540   26.8023 H   0  0  0  0  0  0  0  0  0  0  0  0
    7.0621   17.2335   29.7594 H   0  0  0  0  0  0  0  0  0  0  0  0
    4.7559   16.2942   29.6692 H   0  0  0  0  0  0  0  0  0  0  0  0
    3.1759   20.2517   28.9878 H   0  0  0  0  0  0  0  0  0  0  0  0
    5.4784   21.2059   29.1224 H   0  0  0  0  0  0  0  0  0  0  0  0
   11.7040   21.9330   30.8869 H   0  0  0  0  0  0  0  0  0  0  0  0
   13.8672   21.4663   32.0260 H   0  0  0  0  0  0  0  0  0  0  0  0
  1  2  2  0
  2  3  1  0
  2  4  1  0
  4  5  2  0
  5  6  1  0
  6  7  2  0
  7  8  1  0
  8  9  1  0
  9 10  2  0
 10 11  1  0
 11 12  1  0
 12 13  1  0
 13 14  2  0
 14 15  1  0
 15 16  2  0
 16 17  1  0
 17 18  1  0
 17 19  2  0
 10 20  1  0
 20 21  1  0
 21 22  2  0
 22 23  1  0
 23 24  2  0
 24 25  1  0
 24 26  1  0
 26 27  2  0
 20 28  2  0
  7 29  1  0
 29 30  2  0
 30  4  1  0
 28  8  1  0
 19 13  1  0
 27 21  1  0
  5 31  1  0
  6 32  1  0
  9 33  1  0
 11 34  1  0
 11 35  1  0
 12 36  1  0
 14 37  1  0
 15 38  1  0
 16 39  1  0
 19 40  1  0
 22 41  1  0
 23 42  1  0
 26 43  1  0
 27 44  1  0
 29 45  1  0
 30 46  1  0
M  CHG  1   3  -1
M  END
>  <meeko>  (12) 
{"is_sidechain": [false], "free_energy": -5.82, "intermolecular_energy": -8.584, "internal_energy": -1.531}

> <PREPARED_BY>
siam chowdhury
Computational and Medicinal Chemistry
[Dr. Alam's Research Team] www.alamresearch.org
Arkansas State University

$$$$
9sa23_out
     RDKit          3D

 46 49  0  0  0  0  0  0  0  0999 V2000
    1.2590   15.5240   28.8920 O   0  0  0  0  0  0  0  0  0  0  0  0
    1.9070   16.0740   29.7640 C   0  0  0  0  0  0  0  0  0  0  0  0
    1.5620   16.0410   31.0670 O   0  0  0  0  0  0  0  0  0  0  0  0
    3.1730   16.8020   29.4840 C   0  0  0  0  0  0  0  0  0  0  0  0
    4.4430   16.2660   29.7440 C   0  0  0  0  0  0  0  0  0  0  0  0
    5.5940   17.0350   29.5160 C   0  0  0  0  0  0  0  0  0  0  0  0
    5.4840   18.3550   29.0530 C   0  0  0  0  0  0  0  0  0  0  0  0
    6.6430   19.1710   28.9170 N   0  0  0  0  0  0  0  0  0  0  0  0
    7.5980   19.4000   29.8720 C   0  0  0  0  0  0  0  0  0  0  0  0
    8.6060   20.1290   29.2840 C   0  0  0  0  0  0  0  0  0  0  0  0
    9.9050   20.4920   29.9200 C   0  0  0  0  0  0  0  0  0  0  0  0
   10.4990   19.4290   30.7250 N   0  0  0  0  0  0  0  0  0  0  0  0
   11.6990   19.6900   31.3970 C   0  0  0  0  0  0  0  0  0  0  0  0
   12.5310   18.6800   31.9000 C   0  0  0  0  0  0  0  0  0  0  0  0
   13.7510   18.9800   32.5110 C   0  0  0  0  0  0  0  0  0  0  0  0
   14.1780   20.3000   32.6030 C   0  0  0  0  0  0  0  0  0  0  0  0
   13.3890   21.3090   32.0590 C   0  0  0  0  0  0  0  0  0  0  0  0
   13.9780   23.1040   32.1470 Br  0  0  0  0  0  0  0  0  0  0  0  0
   12.1710   21.0090   31.4460 C   0  0  0  0  0  0  0  0  0  0  0  0
    8.1300   20.4120   27.9690 C   0  0  0  0  0  0  0  0  0  0  0  0
    8.7680   21.2390   26.9300 C   0  0  0  0  0  0  0  0  0  0  0  0
    8.6160   20.9290   25.5670 C   0  0  0  0  0  0  0  0  0  0  0  0
    9.2050   21.7150   24.5740 C   0  0  0  0  0  0  0  0  0  0  0  0
    9.9770   22.8060   24.9390 C   0  0  0  0  0  0  0  0  0  0  0  0
   10.5570   23.5520   23.9900 F   0  0  0  0  0  0  0  0  0  0  0  0
   10.1630   23.1270   26.2800 C   0  0  0  0  0  0  0  0  0  0  0  0
    9.5600   22.3460   27.2730 C   0  0  0  0  0  0  0  0  0  0  0  0
    6.9610   19.7820   27.7460 N   0  0  0  0  0  0  0  0  0  0  0  0
    4.2100   18.8790   28.7810 C   0  0  0  0  0  0  0  0  0  0  0  0
    3.0650   18.1070   28.9950 C   0  0  0  0  0  0  0  0  0  0  0  0
    4.5367   15.2394   30.1279 H   0  0  0  0  0  0  0  0  0  0  0  0
    6.5877   16.6010   29.7011 H   0  0  0  0  0  0  0  0  0  0  0  0
    7.5650   19.0625   30.9184 H   0  0  0  0  0  0  0  0  0  0  0  0
   10.6155   20.7587   29.1237 H   0  0  0  0  0  0  0  0  0  0  0  0
    9.6970   21.3267   30.6056 H   0  0  0  0  0  0  0  0  0  0  0  0
   10.0660   18.5480   30.7940 H   0  0  0  0  0  0  0  0  0  0  0  0
   12.2167   17.6296   31.8118 H   0  0  0  0  0  0  0  0  0  0  0  0
   14.3744   18.1711   32.9197 H   0  0  0  0  0  0  0  0  0  0  0  0
   15.1285   20.5439   33.1000 H   0  0  0  0  0  0  0  0  0  0  0  0
   11.5750   21.8169   30.9964 H   0  0  0  0  0  0  0  0  0  0  0  0
    8.0215   20.0501   25.2770 H   0  0  0  0  0  0  0  0  0  0  0  0
    9.0573   21.4701   23.5118 H   0  0  0  0  0  0  0  0  0  0  0  0
   10.7823   23.9922   26.5592 H   0  0  0  0  0  0  0  0  0  0  0  0
    9.7083   22.6023   28.3324 H   0  0  0  0  0  0  0  0  0  0  0  0
    4.1125   19.9050   28.3965 H   0  0  0  0  0  0  0  0  0  0  0  0
    2.0727   18.5288   28.7773 H   0  0  0  0  0  0  0  0  0  0  0  0
  1  2  2  0
  2  3  1  0
  2  4  1  0
  4  5  2  0
  5  6  1  0
  6  7  2  0
  7  8  1  0
  8  9  1  0
  9 10  2  0
 10 11  1  0
 11 12  1  0
 12 13  1  0
 13 14  2  0
 14 15  1  0
 15 16  2  0
 16 17  1  0
 17 18  1  0
 17 19  2  0
 10 20  1  0
 20 21  1  0
 21 22  2  0
 22 23  1  0
 23 24  2  0
 24 25  1  0
 24 26  1  0
 26 27  2  0
 20 28  2  0
  7 29  1  0
 29 30  2  0
 30  4  1  0
 28  8  1  0
 19 13  1  0
 27 21  1  0
  5 31  1  0
  6 32  1  0
  9 33  1  0
 11 34  1  0
 11 35  1  0
 12 36  1  0
 14 37  1  0
 15 38  1  0
 16 39  1  0
 19 40  1  0
 22 41  1  0
 23 42  1  0
 26 43  1  0
 27 44  1  0
 29 45  1  0
 30 46  1  0
M  CHG  1   3  -1
M  END
>  <meeko>  (13) 
{"is_sidechain": [false], "free_energy": -5.751, "intermolecular_energy": -9.34, "internal_energy": -0.681}

> <PREPARED_BY>
siam chowdhury
Computational and Medicinal Chemistry
[Dr. Alam's Research Team] www.alamresearch.org
Arkansas State University

$$$$
9sa23_out
     RDKit          3D

 46 49  0  0  0  0  0  0  0  0999 V2000
    5.9810   14.0370   30.4370 O   0  0  0  0  0  0  0  0  0  0  0  0
    6.2220   14.1800   31.6220 C   0  0  0  0  0  0  0  0  0  0  0  0
    5.3070   13.9640   32.5890 O   0  0  0  0  0  0  0  0  0  0  0  0
    7.5670   14.5660   32.1260 C   0  0  0  0  0  0  0  0  0  0  0  0
    7.9180   14.5330   33.4830 C   0  0  0  0  0  0  0  0  0  0  0  0
    9.1850   14.9740   33.8950 C   0  0  0  0  0  0  0  0  0  0  0  0
   10.0990   15.4790   32.9580 C   0  0  0  0  0  0  0  0  0  0  0  0
   11.3450   16.0210   33.3850 N   0  0  0  0  0  0  0  0  0  0  0  0
   12.1190   16.9230   32.7050 C   0  0  0  0  0  0  0  0  0  0  0  0
   13.1610   17.2800   33.5300 C   0  0  0  0  0  0  0  0  0  0  0  0
   14.1760   18.3340   33.2470 C   0  0  0  0  0  0  0  0  0  0  0  0
   13.6140   19.6480   32.9510 N   0  0  0  0  0  0  0  0  0  0  0  0
   14.4890   20.6980   32.6490 C   0  0  0  0  0  0  0  0  0  0  0  0
   15.0200   21.5570   33.6210 C   0  0  0  0  0  0  0  0  0  0  0  0
   15.9390   22.5550   33.2860 C   0  0  0  0  0  0  0  0  0  0  0  0
   16.3690   22.6930   31.9720 C   0  0  0  0  0  0  0  0  0  0  0  0
   15.8930   21.8130   31.0050 C   0  0  0  0  0  0  0  0  0  0  0  0
   16.4990   21.9690   29.2210 Br  0  0  0  0  0  0  0  0  0  0  0  0
   14.9770   20.8140   31.3400 C   0  0  0  0  0  0  0  0  0  0  0  0
   13.0150   16.4480   34.6810 C   0  0  0  0  0  0  0  0  0  0  0  0
   13.9080   16.3460   35.8470 C   0  0  0  0  0  0  0  0  0  0  0  0
   14.8840   15.3360   35.9230 C   0  0  0  0  0  0  0  0  0  0  0  0
   15.7450   15.2400   37.0190 C   0  0  0  0  0  0  0  0  0  0  0  0
   15.6180   16.1400   38.0640 C   0  0  0  0  0  0  0  0  0  0  0  0
   16.4320   16.0410   39.1240 F   0  0  0  0  0  0  0  0  0  0  0  0
   14.6500   17.1390   38.0280 C   0  0  0  0  0  0  0  0  0  0  0  0
   13.7980   17.2420   36.9230 C   0  0  0  0  0  0  0  0  0  0  0  0
   11.8810   15.7270   34.5980 N   0  0  0  0  0  0  0  0  0  0  0  0
    9.7440   15.4940   31.5990 C   0  0  0  0  0  0  0  0  0  0  0  0
    8.4880   15.0420   31.1890 C   0  0  0  0  0  0  0  0  0  0  0  0
    7.1983   14.1604   34.2268 H   0  0  0  0  0  0  0  0  0  0  0  0
    9.4629   14.9235   34.9581 H   0  0  0  0  0  0  0  0  0  0  0  0
   11.9404   17.2945   31.6852 H   0  0  0  0  0  0  0  0  0  0  0  0
   14.8280   18.4291   34.1278 H   0  0  0  0  0  0  0  0  0  0  0  0
   14.7180   18.0138   32.3449 H   0  0  0  0  0  0  0  0  0  0  0  0
   12.6400   19.7930   32.9630 H   0  0  0  0  0  0  0  0  0  0  0  0
   14.7068   21.4432   34.6693 H   0  0  0  0  0  0  0  0  0  0  0  0
   16.3224   23.2321   34.0635 H   0  0  0  0  0  0  0  0  0  0  0  0
   17.0777   23.4889   31.6993 H   0  0  0  0  0  0  0  0  0  0  0  0
   14.6342   20.1097   30.5677 H   0  0  0  0  0  0  0  0  0  0  0  0
   14.9710   14.6075   35.1034 H   0  0  0  0  0  0  0  0  0  0  0  0
   16.5167   14.4568   37.0517 H   0  0  0  0  0  0  0  0  0  0  0  0
   14.5549   17.8455   38.8657 H   0  0  0  0  0  0  0  0  0  0  0  0
   13.0340   18.0330   36.8967 H   0  0  0  0  0  0  0  0  0  0  0  0
   10.4611   15.8648   30.8518 H   0  0  0  0  0  0  0  0  0  0  0  0
    8.2219   15.0607   30.1218 H   0  0  0  0  0  0  0  0  0  0  0  0
  1  2  2  0
  2  3  1  0
  2  4  1  0
  4  5  2  0
  5  6  1  0
  6  7  2  0
  7  8  1  0
  8  9  1  0
  9 10  2  0
 10 11  1  0
 11 12  1  0
 12 13  1  0
 13 14  2  0
 14 15  1  0
 15 16  2  0
 16 17  1  0
 17 18  1  0
 17 19  2  0
 10 20  1  0
 20 21  1  0
 21 22  2  0
 22 23  1  0
 23 24  2  0
 24 25  1  0
 24 26  1  0
 26 27  2  0
 20 28  2  0
  7 29  1  0
 29 30  2  0
 30  4  1  0
 28  8  1  0
 19 13  1  0
 27 21  1  0
  5 31  1  0
  6 32  1  0
  9 33  1  0
 11 34  1  0
 11 35  1  0
 12 36  1  0
 14 37  1  0
 15 38  1  0
 16 39  1  0
 19 40  1  0
 22 41  1  0
 23 42  1  0
 26 43  1  0
 27 44  1  0
 29 45  1  0
 30 46  1  0
M  CHG  1   3  -1
M  END
>  <meeko>  (14) 
{"is_sidechain": [false], "free_energy": -5.711, "intermolecular_energy": -9.029, "internal_energy": -0.939}

> <PREPARED_BY>
siam chowdhury
Computational and Medicinal Chemistry
[Dr. Alam's Research Team] www.alamresearch.org
Arkansas State University

$$$$
9sa23_out
     RDKit          3D

 46 49  0  0  0  0  0  0  0  0999 V2000
    3.1770   15.0090   30.2730 O   0  0  0  0  0  0  0  0  0  0  0  0
    4.1270   15.5400   29.7270 C   0  0  0  0  0  0  0  0  0  0  0  0
    4.0200   16.2270   28.5720 O   0  0  0  0  0  0  0  0  0  0  0  0
    5.4980   15.5190   30.3030 C   0  0  0  0  0  0  0  0  0  0  0  0
    6.0160   14.4280   31.0150 C   0  0  0  0  0  0  0  0  0  0  0  0
    7.2950   14.5030   31.5890 C   0  0  0  0  0  0  0  0  0  0  0  0
    8.0530   15.6780   31.4790 C   0  0  0  0  0  0  0  0  0  0  0  0
    9.3070   15.7930   32.1440 N   0  0  0  0  0  0  0  0  0  0  0  0
    9.8450   14.9000   33.0330 C   0  0  0  0  0  0  0  0  0  0  0  0
   11.1200   15.3270   33.3270 C   0  0  0  0  0  0  0  0  0  0  0  0
   12.1170   14.5880   34.1540 C   0  0  0  0  0  0  0  0  0  0  0  0
   12.1010   14.9340   35.5710 N   0  0  0  0  0  0  0  0  0  0  0  0
   13.3150   15.2260   36.2040 C   0  0  0  0  0  0  0  0  0  0  0  0
   14.5390   14.6710   35.8070 C   0  0  0  0  0  0  0  0  0  0  0  0
   15.7380   15.0350   36.4250 C   0  0  0  0  0  0  0  0  0  0  0  0
   15.7370   15.9900   37.4350 C   0  0  0  0  0  0  0  0  0  0  0  0
   14.5370   16.5910   37.8030 C   0  0  0  0  0  0  0  0  0  0  0  0
   14.5320   17.9160   39.1510 Br  0  0  0  0  0  0  0  0  0  0  0  0
   13.3400   16.2280   37.1830 C   0  0  0  0  0  0  0  0  0  0  0  0
   11.2500   16.5780   32.6540 C   0  0  0  0  0  0  0  0  0  0  0  0
   12.3830   17.5190   32.6940 C   0  0  0  0  0  0  0  0  0  0  0  0
   13.4980   17.2710   33.5140 C   0  0  0  0  0  0  0  0  0  0  0  0
   14.5830   18.1500   33.5490 C   0  0  0  0  0  0  0  0  0  0  0  0
   14.5490   19.3020   32.7810 C   0  0  0  0  0  0  0  0  0  0  0  0
   15.5810   20.1550   32.8240 F   0  0  0  0  0  0  0  0  0  0  0  0
   13.4520   19.5860   31.9740 C   0  0  0  0  0  0  0  0  0  0  0  0
   12.3720   18.6970   31.9300 C   0  0  0  0  0  0  0  0  0  0  0  0
   10.1610   16.8220   31.9000 N   0  0  0  0  0  0  0  0  0  0  0  0
    7.5330   16.7600   30.7500 C   0  0  0  0  0  0  0  0  0  0  0  0
    6.2650   16.6790   30.1690 C   0  0  0  0  0  0  0  0  0  0  0  0
    5.4187   13.5108   31.1242 H   0  0  0  0  0  0  0  0  0  0  0  0
    7.7047   13.6359   32.1277 H   0  0  0  0  0  0  0  0  0  0  0  0
    9.3488   14.0056   33.4377 H   0  0  0  0  0  0  0  0  0  0  0  0
   11.9109   13.5115   34.0606 H   0  0  0  0  0  0  0  0  0  0  0  0
   13.1100   14.8697   33.7738 H   0  0  0  0  0  0  0  0  0  0  0  0
   11.2530   14.9610   36.0730 H   0  0  0  0  0  0  0  0  0  0  0  0
   14.5562   13.9330   34.9914 H   0  0  0  0  0  0  0  0  0  0  0  0
   16.6826   14.5659   36.1124 H   0  0  0  0  0  0  0  0  0  0  0  0
   16.6749   16.2678   37.9381 H   0  0  0  0  0  0  0  0  0  0  0  0
   12.4056   16.7345   37.4664 H   0  0  0  0  0  0  0  0  0  0  0  0
   13.5162   16.3669   34.1403 H   0  0  0  0  0  0  0  0  0  0  0  0
   15.4562   17.9293   34.1806 H   0  0  0  0  0  0  0  0  0  0  0  0
   13.4335   20.5066   31.3722 H   0  0  0  0  0  0  0  0  0  0  0  0
   11.5060   18.9234   31.2906 H   0  0  0  0  0  0  0  0  0  0  0  0
    8.1284   17.6778   30.6357 H   0  0  0  0  0  0  0  0  0  0  0  0
    5.8680   17.5341   29.6024 H   0  0  0  0  0  0  0  0  0  0  0  0
  1  2  2  0
  2  3  1  0
  2  4  1  0
  4  5  2  0
  5  6  1  0
  6  7  2  0
  7  8  1  0
  8  9  1  0
  9 10  2  0
 10 11  1  0
 11 12  1  0
 12 13  1  0
 13 14  2  0
 14 15  1  0
 15 16  2  0
 16 17  1  0
 17 18  1  0
 17 19  2  0
 10 20  1  0
 20 21  1  0
 21 22  2  0
 22 23  1  0
 23 24  2  0
 24 25  1  0
 24 26  1  0
 26 27  2  0
 20 28  2  0
  7 29  1  0
 29 30  2  0
 30  4  1  0
 28  8  1  0
 19 13  1  0
 27 21  1  0
  5 31  1  0
  6 32  1  0
  9 33  1  0
 11 34  1  0
 11 35  1  0
 12 36  1  0
 14 37  1  0
 15 38  1  0
 16 39  1  0
 19 40  1  0
 22 41  1  0
 23 42  1  0
 26 43  1  0
 27 44  1  0
 29 45  1  0
 30 46  1  0
M  CHG  1   3  -1
M  END
>  <meeko>  (15) 
{"is_sidechain": [false], "free_energy": -5.698, "intermolecular_energy": -9.088, "internal_energy": -0.862}

> <PREPARED_BY>
siam chowdhury
Computational and Medicinal Chemistry
[Dr. Alam's Research Team] www.alamresearch.org
Arkansas State University

$$$$
9sa23_out
     RDKit          3D

 46 49  0  0  0  0  0  0  0  0999 V2000
    5.4820   20.9960   27.4970 O   0  0  0  0  0  0  0  0  0  0  0  0
    6.3930   20.1940   27.3920 C   0  0  0  0  0  0  0  0  0  0  0  0
    6.4100   19.2210   26.4580 O   0  0  0  0  0  0  0  0  0  0  0  0
    7.6010   20.2340   28.2570 C   0  0  0  0  0  0  0  0  0  0  0  0
    8.8000   20.8520   27.8760 C   0  0  0  0  0  0  0  0  0  0  0  0
    9.9220   20.7940   28.7170 C   0  0  0  0  0  0  0  0  0  0  0  0
    9.8620   20.0950   29.9310 C   0  0  0  0  0  0  0  0  0  0  0  0
   11.0270   19.9490   30.7380 N   0  0  0  0  0  0  0  0  0  0  0  0
   11.9900   20.8970   30.9620 C   0  0  0  0  0  0  0  0  0  0  0  0
   12.8580   20.3910   31.9030 C   0  0  0  0  0  0  0  0  0  0  0  0
   13.9840   21.1340   32.5390 C   0  0  0  0  0  0  0  0  0  0  0  0
   13.5900   22.3740   33.2010 N   0  0  0  0  0  0  0  0  0  0  0  0
   13.3310   22.3450   34.5760 C   0  0  0  0  0  0  0  0  0  0  0  0
   12.3950   23.1840   35.1960 C   0  0  0  0  0  0  0  0  0  0  0  0
   12.1200   23.0820   36.5630 C   0  0  0  0  0  0  0  0  0  0  0  0
   12.7580   22.1140   37.3300 C   0  0  0  0  0  0  0  0  0  0  0  0
   13.6480   21.2380   36.7180 C   0  0  0  0  0  0  0  0  0  0  0  0
   14.4920   19.8950   37.7460 Br  0  0  0  0  0  0  0  0  0  0  0  0
   13.9200   21.3390   35.3520 C   0  0  0  0  0  0  0  0  0  0  0  0
   12.4140   19.0530   32.1260 C   0  0  0  0  0  0  0  0  0  0  0  0
   13.0330   18.0200   32.9750 C   0  0  0  0  0  0  0  0  0  0  0  0
   12.3420   16.8370   33.2900 C   0  0  0  0  0  0  0  0  0  0  0  0
   12.9260   15.8450   34.0820 C   0  0  0  0  0  0  0  0  0  0  0  0
   14.2000   16.0430   34.5890 C   0  0  0  0  0  0  0  0  0  0  0  0
   14.7560   15.1010   35.3620 F   0  0  0  0  0  0  0  0  0  0  0  0
   14.9020   17.2110   34.3110 C   0  0  0  0  0  0  0  0  0  0  0  0
   14.3210   18.1970   33.5060 C   0  0  0  0  0  0  0  0  0  0  0  0
   11.2740   18.8180   31.4500 N   0  0  0  0  0  0  0  0  0  0  0  0
    8.6530   19.4920   30.3130 C   0  0  0  0  0  0  0  0  0  0  0  0
    7.5330   19.5620   29.4810 C   0  0  0  0  0  0  0  0  0  0  0  0
    8.8617   21.3839   26.9151 H   0  0  0  0  0  0  0  0  0  0  0  0
   10.8534   21.2996   28.4222 H   0  0  0  0  0  0  0  0  0  0  0  0
   12.0574   21.8826   30.4783 H   0  0  0  0  0  0  0  0  0  0  0  0
   14.4502   20.4771   33.2881 H   0  0  0  0  0  0  0  0  0  0  0  0
   14.6722   21.4156   31.7284 H   0  0  0  0  0  0  0  0  0  0  0  0
   13.5090   23.2130   32.6910 H   0  0  0  0  0  0  0  0  0  0  0  0
   11.8660   23.9381   34.5948 H   0  0  0  0  0  0  0  0  0  0  0  0
   11.3988   23.7677   37.0316 H   0  0  0  0  0  0  0  0  0  0  0  0
   12.5609   22.0417   38.4098 H   0  0  0  0  0  0  0  0  0  0  0  0
   14.6052   20.6196   34.8798 H   0  0  0  0  0  0  0  0  0  0  0  0
   11.3220   16.6894   32.9056 H   0  0  0  0  0  0  0  0  0  0  0  0
   12.3795   14.9158   34.3008 H   0  0  0  0  0  0  0  0  0  0  0  0
   15.9112   17.3592   34.7228 H   0  0  0  0  0  0  0  0  0  0  0  0
   14.8784   19.1196   33.2870 H   0  0  0  0  0  0  0  0  0  0  0  0
    8.5872   18.9608   31.2740 H   0  0  0  0  0  0  0  0  0  0  0  0
    6.5914   19.0852   29.7910 H   0  0  0  0  0  0  0  0  0  0  0  0
  1  2  2  0
  2  3  1  0
  2  4  1  0
  4  5  2  0
  5  6  1  0
  6  7  2  0
  7  8  1  0
  8  9  1  0
  9 10  2  0
 10 11  1  0
 11 12  1  0
 12 13  1  0
 13 14  2  0
 14 15  1  0
 15 16  2  0
 16 17  1  0
 17 18  1  0
 17 19  2  0
 10 20  1  0
 20 21  1  0
 21 22  2  0
 22 23  1  0
 23 24  2  0
 24 25  1  0
 24 26  1  0
 26 27  2  0
 20 28  2  0
  7 29  1  0
 29 30  2  0
 30  4  1  0
 28  8  1  0
 19 13  1  0
 27 21  1  0
  5 31  1  0
  6 32  1  0
  9 33  1  0
 11 34  1  0
 11 35  1  0
 12 36  1  0
 14 37  1  0
 15 38  1  0
 16 39  1  0
 19 40  1  0
 22 41  1  0
 23 42  1  0
 26 43  1  0
 27 44  1  0
 29 45  1  0
 30 46  1  0
M  CHG  1   3  -1
M  END
>  <meeko>  (16) 
{"is_sidechain": [false], "free_energy": -5.458, "intermolecular_energy": -8.655, "internal_energy": -0.971}

> <PREPARED_BY>
siam chowdhury
Computational and Medicinal Chemistry
[Dr. Alam's Research Team] www.alamresearch.org
Arkansas State University

$$$$
9sa23_out
     RDKit          3D

 46 49  0  0  0  0  0  0  0  0999 V2000
    5.4340   21.1820   26.7210 O   0  0  0  0  0  0  0  0  0  0  0  0
    6.2980   20.3230   26.7290 C   0  0  0  0  0  0  0  0  0  0  0  0
    6.3400   19.3160   25.8340 O   0  0  0  0  0  0  0  0  0  0  0  0
    7.4210   20.3240   27.7040 C   0  0  0  0  0  0  0  0  0  0  0  0
    8.6960   20.8270   27.4090 C   0  0  0  0  0  0  0  0  0  0  0  0
    9.7270   20.7350   28.3560 C   0  0  0  0  0  0  0  0  0  0  0  0
    9.5000   20.1150   29.5940 C   0  0  0  0  0  0  0  0  0  0  0  0
   10.5700   19.9310   30.5150 N   0  0  0  0  0  0  0  0  0  0  0  0
   10.9000   18.7690   31.1620 C   0  0  0  0  0  0  0  0  0  0  0  0
   12.0720   18.9960   31.8480 C   0  0  0  0  0  0  0  0  0  0  0  0
   12.8620   17.9690   32.5860 C   0  0  0  0  0  0  0  0  0  0  0  0
   12.1780   16.6920   32.7590 N   0  0  0  0  0  0  0  0  0  0  0  0
   12.2190   16.0760   34.0160 C   0  0  0  0  0  0  0  0  0  0  0  0
   11.2250   15.1990   34.4720 C   0  0  0  0  0  0  0  0  0  0  0  0
   11.3330   14.5560   35.7080 C   0  0  0  0  0  0  0  0  0  0  0  0
   12.4580   14.7550   36.4990 C   0  0  0  0  0  0  0  0  0  0  0  0
   13.4800   15.5790   36.0360 C   0  0  0  0  0  0  0  0  0  0  0  0
   15.0290   15.8280   37.0890 Br  0  0  0  0  0  0  0  0  0  0  0  0
   13.3720   16.2200   34.7990 C   0  0  0  0  0  0  0  0  0  0  0  0
   12.3410   20.3850   31.6600 C   0  0  0  0  0  0  0  0  0  0  0  0
   13.4280   21.1870   32.2460 C   0  0  0  0  0  0  0  0  0  0  0  0
   13.1560   22.1710   33.2140 C   0  0  0  0  0  0  0  0  0  0  0  0
   14.1820   22.9280   33.7870 C   0  0  0  0  0  0  0  0  0  0  0  0
   15.4880   22.7230   33.3750 C   0  0  0  0  0  0  0  0  0  0  0  0
   16.4720   23.4580   33.9110 F   0  0  0  0  0  0  0  0  0  0  0  0
   15.7880   21.7710   32.4060 C   0  0  0  0  0  0  0  0  0  0  0  0
   14.7600   21.0050   31.8440 C   0  0  0  0  0  0  0  0  0  0  0  0
   11.4490   20.9250   30.8090 N   0  0  0  0  0  0  0  0  0  0  0  0
    8.2160   19.6280   29.8870 C   0  0  0  0  0  0  0  0  0  0  0  0
    7.1870   19.7320   28.9490 C   0  0  0  0  0  0  0  0  0  0  0  0
    8.8885   21.2951   26.4323 H   0  0  0  0  0  0  0  0  0  0  0  0
   10.7190   21.1513   28.1266 H   0  0  0  0  0  0  0  0  0  0  0  0
   10.3324   17.8271   31.1377 H   0  0  0  0  0  0  0  0  0  0  0  0
   13.7941   17.7876   32.0308 H   0  0  0  0  0  0  0  0  0  0  0  0
   13.0352   18.3715   33.5949 H   0  0  0  0  0  0  0  0  0  0  0  0
   11.6990   16.2720   32.0090 H   0  0  0  0  0  0  0  0  0  0  0  0
   10.3414   15.0131   33.8437 H   0  0  0  0  0  0  0  0  0  0  0  0
   10.5273   13.8922   36.0548 H   0  0  0  0  0  0  0  0  0  0  0  0
   12.5402   14.2664   37.4811 H   0  0  0  0  0  0  0  0  0  0  0  0
   14.2015   16.8446   34.4359 H   0  0  0  0  0  0  0  0  0  0  0  0
   12.1161   22.3481   33.5259 H   0  0  0  0  0  0  0  0  0  0  0  0
   13.9541   23.6792   34.5576 H   0  0  0  0  0  0  0  0  0  0  0  0
   16.8287   21.6208   32.0828 H   0  0  0  0  0  0  0  0  0  0  0  0
   14.9990   20.2519   31.0786 H   0  0  0  0  0  0  0  0  0  0  0  0
    8.0192   19.1609   30.8632 H   0  0  0  0  0  0  0  0  0  0  0  0
    6.1859   19.3458   29.1910 H   0  0  0  0  0  0  0  0  0  0  0  0
  1  2  2  0
  2  3  1  0
  2  4  1  0
  4  5  2  0
  5  6  1  0
  6  7  2  0
  7  8  1  0
  8  9  1  0
  9 10  2  0
 10 11  1  0
 11 12  1  0
 12 13  1  0
 13 14  2  0
 14 15  1  0
 15 16  2  0
 16 17  1  0
 17 18  1  0
 17 19  2  0
 10 20  1  0
 20 21  1  0
 21 22  2  0
 22 23  1  0
 23 24  2  0
 24 25  1  0
 24 26  1  0
 26 27  2  0
 20 28  2  0
  7 29  1  0
 29 30  2  0
 30  4  1  0
 28  8  1  0
 19 13  1  0
 27 21  1  0
  5 31  1  0
  6 32  1  0
  9 33  1  0
 11 34  1  0
 11 35  1  0
 12 36  1  0
 14 37  1  0
 15 38  1  0
 16 39  1  0
 19 40  1  0
 22 41  1  0
 23 42  1  0
 26 43  1  0
 27 44  1  0
 29 45  1  0
 30 46  1  0
M  CHG  1   3  -1
M  END
>  <meeko>  (17) 
{"is_sidechain": [false], "free_energy": -5.309, "intermolecular_energy": -8.463, "internal_energy": -0.961}

> <PREPARED_BY>
siam chowdhury
Computational and Medicinal Chemistry
[Dr. Alam's Research Team] www.alamresearch.org
Arkansas State University

$$$$
9sa23_out
     RDKit          3D

 46 49  0  0  0  0  0  0  0  0999 V2000
    1.8740   15.7040   28.5500 O   0  0  0  0  0  0  0  0  0  0  0  0
    2.2930   16.2300   29.5660 C   0  0  0  0  0  0  0  0  0  0  0  0
    1.6880   16.1000   30.7630 O   0  0  0  0  0  0  0  0  0  0  0  0
    3.5410   17.0370   29.5940 C   0  0  0  0  0  0  0  0  0  0  0  0
    3.5800   18.4060   29.2950 C   0  0  0  0  0  0  0  0  0  0  0  0
    4.8050   19.0910   29.2770 C   0  0  0  0  0  0  0  0  0  0  0  0
    6.0030   18.4060   29.5310 C   0  0  0  0  0  0  0  0  0  0  0  0
    7.2540   19.0750   29.4150 N   0  0  0  0  0  0  0  0  0  0  0  0
    7.6100   19.9820   28.4520 C   0  0  0  0  0  0  0  0  0  0  0  0
    8.8480   20.4810   28.7890 C   0  0  0  0  0  0  0  0  0  0  0  0
    9.5620   21.5880   28.0900 C   0  0  0  0  0  0  0  0  0  0  0  0
    8.6850   22.5410   27.4170 N   0  0  0  0  0  0  0  0  0  0  0  0
    8.2280   22.2360   26.1290 C   0  0  0  0  0  0  0  0  0  0  0  0
    9.0360   21.6420   25.1510 C   0  0  0  0  0  0  0  0  0  0  0  0
    8.5250   21.2980   23.8960 C   0  0  0  0  0  0  0  0  0  0  0  0
    7.1830   21.5140   23.6090 C   0  0  0  0  0  0  0  0  0  0  0  0
    6.3550   22.0530   24.5890 C   0  0  0  0  0  0  0  0  0  0  0  0
    4.5200   22.3170   24.2190 Br  0  0  0  0  0  0  0  0  0  0  0  0
    6.8660   22.3940   25.8430 C   0  0  0  0  0  0  0  0  0  0  0  0
    9.2430   19.7290   29.9360 C   0  0  0  0  0  0  0  0  0  0  0  0
   10.5220   19.7860   30.6630 C   0  0  0  0  0  0  0  0  0  0  0  0
   11.1070   18.6200   31.1880 C   0  0  0  0  0  0  0  0  0  0  0  0
   12.3270   18.6620   31.8670 C   0  0  0  0  0  0  0  0  0  0  0  0
   12.9610   19.8800   32.0500 C   0  0  0  0  0  0  0  0  0  0  0  0
   14.1230   19.9250   32.7140 F   0  0  0  0  0  0  0  0  0  0  0  0
   12.4000   21.0540   31.5600 C   0  0  0  0  0  0  0  0  0  0  0  0
   11.1840   21.0080   30.8680 C   0  0  0  0  0  0  0  0  0  0  0  0
    8.2450   18.9170   30.3320 N   0  0  0  0  0  0  0  0  0  0  0  0
    5.9540   17.0390   29.8450 C   0  0  0  0  0  0  0  0  0  0  0  0
    4.7320   16.3620   29.8750 C   0  0  0  0  0  0  0  0  0  0  0  0
    2.6472   18.9454   29.0737 H   0  0  0  0  0  0  0  0  0  0  0  0
    4.8260   20.1697   29.0628 H   0  0  0  0  0  0  0  0  0  0  0  0
    7.0149   20.2608   27.5699 H   0  0  0  0  0  0  0  0  0  0  0  0
   10.1592   22.1359   28.8338 H   0  0  0  0  0  0  0  0  0  0  0  0
   10.1767   21.1200   27.3070 H   0  0  0  0  0  0  0  0  0  0  0  0
    8.4190   23.3800   27.8590 H   0  0  0  0  0  0  0  0  0  0  0  0
   10.0942   21.4421   25.3750 H   0  0  0  0  0  0  0  0  0  0  0  0
    9.1857   20.8562   23.1356 H   0  0  0  0  0  0  0  0  0  0  0  0
    6.7791   21.2616   22.6174 H   0  0  0  0  0  0  0  0  0  0  0  0
    6.1910   22.7914   26.6153 H   0  0  0  0  0  0  0  0  0  0  0  0
   10.5936   17.6554   31.0614 H   0  0  0  0  0  0  0  0  0  0  0  0
   12.7800   17.7368   32.2527 H   0  0  0  0  0  0  0  0  0  0  0  0
   12.9101   22.0161   31.7156 H   0  0  0  0  0  0  0  0  0  0  0  0
   10.7424   21.9381   30.4808 H   0  0  0  0  0  0  0  0  0  0  0  0
    6.8843   16.4966   30.0691 H   0  0  0  0  0  0  0  0  0  0  0  0
    4.7073   15.2903   30.1215 H   0  0  0  0  0  0  0  0  0  0  0  0
  1  2  2  0
  2  3  1  0
  2  4  1  0
  4  5  2  0
  5  6  1  0
  6  7  2  0
  7  8  1  0
  8  9  1  0
  9 10  2  0
 10 11  1  0
 11 12  1  0
 12 13  1  0
 13 14  2  0
 14 15  1  0
 15 16  2  0
 16 17  1  0
 17 18  1  0
 17 19  2  0
 10 20  1  0
 20 21  1  0
 21 22  2  0
 22 23  1  0
 23 24  2  0
 24 25  1  0
 24 26  1  0
 26 27  2  0
 20 28  2  0
  7 29  1  0
 29 30  2  0
 30  4  1  0
 28  8  1  0
 19 13  1  0
 27 21  1  0
  5 31  1  0
  6 32  1  0
  9 33  1  0
 11 34  1  0
 11 35  1  0
 12 36  1  0
 14 37  1  0
 15 38  1  0
 16 39  1  0
 19 40  1  0
 22 41  1  0
 23 42  1  0
 26 43  1  0
 27 44  1  0
 29 45  1  0
 30 46  1  0
M  CHG  1   3  -1
M  END
>  <meeko>  (18) 
{"is_sidechain": [false], "free_energy": -5.122, "intermolecular_energy": -8.492, "internal_energy": -0.68}

> <PREPARED_BY>
siam chowdhury
Computational and Medicinal Chemistry
[Dr. Alam's Research Team] www.alamresearch.org
Arkansas State University

$$$$
9sa23_out
     RDKit          3D

 46 49  0  0  0  0  0  0  0  0999 V2000
    5.6150   13.1900   30.0220 O   0  0  0  0  0  0  0  0  0  0  0  0
    5.3930   14.2980   30.4770 C   0  0  0  0  0  0  0  0  0  0  0  0
    5.2280   14.5310   31.7940 O   0  0  0  0  0  0  0  0  0  0  0  0
    5.3240   15.5150   29.6250 C   0  0  0  0  0  0  0  0  0  0  0  0
    4.7090   15.5390   28.3660 C   0  0  0  0  0  0  0  0  0  0  0  0
    4.7390   16.7060   27.5870 C   0  0  0  0  0  0  0  0  0  0  0  0
    5.4080   17.8490   28.0500 C   0  0  0  0  0  0  0  0  0  0  0  0
    5.5270   19.0000   27.2210 N   0  0  0  0  0  0  0  0  0  0  0  0
    4.5050   19.7960   26.7750 C   0  0  0  0  0  0  0  0  0  0  0  0
    5.0690   20.8680   26.1220 C   0  0  0  0  0  0  0  0  0  0  0  0
    4.3310   22.0490   25.5880 C   0  0  0  0  0  0  0  0  0  0  0  0
    4.4740   23.2610   26.3880 N   0  0  0  0  0  0  0  0  0  0  0  0
    4.2070   23.1920   27.7610 C   0  0  0  0  0  0  0  0  0  0  0  0
    2.9280   23.3780   28.3030 C   0  0  0  0  0  0  0  0  0  0  0  0
    2.6920   23.2390   29.6740 C   0  0  0  0  0  0  0  0  0  0  0  0
    3.7300   22.8820   30.5260 C   0  0  0  0  0  0  0  0  0  0  0  0
    4.9940   22.6400   29.9950 C   0  0  0  0  0  0  0  0  0  0  0  0
    6.4030   22.1180   31.1420 Br  0  0  0  0  0  0  0  0  0  0  0  0
    5.2280   22.7760   28.6250 C   0  0  0  0  0  0  0  0  0  0  0  0
    6.4680   20.5920   26.1100 C   0  0  0  0  0  0  0  0  0  0  0  0
    7.5420   21.3650   25.4620 C   0  0  0  0  0  0  0  0  0  0  0  0
    8.0930   20.9490   24.2380 C   0  0  0  0  0  0  0  0  0  0  0  0
    9.1020   21.6830   23.6090 C   0  0  0  0  0  0  0  0  0  0  0  0
    9.5860   22.8300   24.2160 C   0  0  0  0  0  0  0  0  0  0  0  0
   10.5640   23.5280   23.6230 F   0  0  0  0  0  0  0  0  0  0  0  0
    9.0750   23.2580   25.4370 C   0  0  0  0  0  0  0  0  0  0  0  0
    8.0550   22.5280   26.0580 C   0  0  0  0  0  0  0  0  0  0  0  0
    6.7350   19.4820   26.8240 N   0  0  0  0  0  0  0  0  0  0  0  0
    6.0080   17.8210   29.3190 C   0  0  0  0  0  0  0  0  0  0  0  0
    5.9660   16.6630   30.0980 C   0  0  0  0  0  0  0  0  0  0  0  0
    4.2010   14.6400   27.9870 H   0  0  0  0  0  0  0  0  0  0  0  0
    4.2357   16.7246   26.6090 H   0  0  0  0  0  0  0  0  0  0  0  0
    3.4294   19.6117   26.9136 H   0  0  0  0  0  0  0  0  0  0  0  0
    4.7049   22.2592   24.5751 H   0  0  0  0  0  0  0  0  0  0  0  0
    3.2631   21.7858   25.6047 H   0  0  0  0  0  0  0  0  0  0  0  0
    4.7510   24.1090   25.9720 H   0  0  0  0  0  0  0  0  0  0  0  0
    2.0929   23.6386   27.6362 H   0  0  0  0  0  0  0  0  0  0  0  0
    1.6839   23.4124   30.0785 H   0  0  0  0  0  0  0  0  0  0  0  0
    3.5549   22.7916   31.6082 H   0  0  0  0  0  0  0  0  0  0  0  0
    6.2261   22.5538   28.2195 H   0  0  0  0  0  0  0  0  0  0  0  0
    7.7226   20.0272   23.7657 H   0  0  0  0  0  0  0  0  0  0  0  0
    9.5079   21.3531   22.6413 H   0  0  0  0  0  0  0  0  0  0  0  0
    9.4713   24.1671   25.9129 H   0  0  0  0  0  0  0  0  0  0  0  0
    7.6512   22.8689   27.0227 H   0  0  0  0  0  0  0  0  0  0  0  0
    6.5152   18.7185   29.7026 H   0  0  0  0  0  0  0  0  0  0  0  0
    6.4411   16.6541   31.0901 H   0  0  0  0  0  0  0  0  0  0  0  0
  1  2  2  0
  2  3  1  0
  2  4  1  0
  4  5  2  0
  5  6  1  0
  6  7  2  0
  7  8  1  0
  8  9  1  0
  9 10  2  0
 10 11  1  0
 11 12  1  0
 12 13  1  0
 13 14  2  0
 14 15  1  0
 15 16  2  0
 16 17  1  0
 17 18  1  0
 17 19  2  0
 10 20  1  0
 20 21  1  0
 21 22  2  0
 22 23  1  0
 23 24  2  0
 24 25  1  0
 24 26  1  0
 26 27  2  0
 20 28  2  0
  7 29  1  0
 29 30  2  0
 30  4  1  0
 28  8  1  0
 19 13  1  0
 27 21  1  0
  5 31  1  0
  6 32  1  0
  9 33  1  0
 11 34  1  0
 11 35  1  0
 12 36  1  0
 14 37  1  0
 15 38  1  0
 16 39  1  0
 19 40  1  0
 22 41  1  0
 23 42  1  0
 26 43  1  0
 27 44  1  0
 29 45  1  0
 30 46  1  0
M  CHG  1   3  -1
M  END
>  <meeko>  (19) 
{"is_sidechain": [false], "free_energy": -4.811, "intermolecular_energy": -7.646, "internal_energy": -1.107}

> <PREPARED_BY>
siam chowdhury
Computational and Medicinal Chemistry
[Dr. Alam's Research Team] www.alamresearch.org
Arkansas State University

$$$$
9sa23_out
     RDKit          3D

 46 49  0  0  0  0  0  0  0  0999 V2000
   15.6270   23.5010   28.1560 O   0  0  0  0  0  0  0  0  0  0  0  0
   14.6780   23.2180   28.8650 C   0  0  0  0  0  0  0  0  0  0  0  0
   13.4080   23.5520   28.5590 O   0  0  0  0  0  0  0  0  0  0  0  0
   14.8200   22.4330   30.1200 C   0  0  0  0  0  0  0  0  0  0  0  0
   16.0600   22.0580   30.6570 C   0  0  0  0  0  0  0  0  0  0  0  0
   16.1180   21.2610   31.8100 C   0  0  0  0  0  0  0  0  0  0  0  0
   14.9380   20.8090   32.4190 C   0  0  0  0  0  0  0  0  0  0  0  0
   14.9940   19.9180   33.5280 N   0  0  0  0  0  0  0  0  0  0  0  0
   15.8700   19.9760   34.5800 C   0  0  0  0  0  0  0  0  0  0  0  0
   15.4900   19.0160   35.4900 C   0  0  0  0  0  0  0  0  0  0  0  0
   16.0850   18.8120   36.8420 C   0  0  0  0  0  0  0  0  0  0  0  0
   15.9260   19.9450   37.7470 N   0  0  0  0  0  0  0  0  0  0  0  0
   14.6340   20.3100   38.1440 C   0  0  0  0  0  0  0  0  0  0  0  0
   13.9660   19.7120   39.2210 C   0  0  0  0  0  0  0  0  0  0  0  0
   12.7000   20.1480   39.6240 C   0  0  0  0  0  0  0  0  0  0  0  0
   12.0910   21.2130   38.9720 C   0  0  0  0  0  0  0  0  0  0  0  0
   12.7660   21.8530   37.9360 C   0  0  0  0  0  0  0  0  0  0  0  0
   11.9610   23.3270   37.0680 Br  0  0  0  0  0  0  0  0  0  0  0  0
   14.0310   21.4190   37.5360 C   0  0  0  0  0  0  0  0  0  0  0  0
   14.4180   18.3190   34.8560 C   0  0  0  0  0  0  0  0  0  0  0  0
   13.6910   17.1340   35.3430 C   0  0  0  0  0  0  0  0  0  0  0  0
   13.5270   16.9040   36.7210 C   0  0  0  0  0  0  0  0  0  0  0  0
   12.8260   15.7910   37.1920 C   0  0  0  0  0  0  0  0  0  0  0  0
   12.3050   14.8820   36.2860 C   0  0  0  0  0  0  0  0  0  0  0  0
   11.6470   13.8060   36.7350 F   0  0  0  0  0  0  0  0  0  0  0  0
   12.4680   15.0710   34.9180 C   0  0  0  0  0  0  0  0  0  0  0  0
   13.1580   16.1940   34.4470 C   0  0  0  0  0  0  0  0  0  0  0  0
   14.0970   18.9100   33.6900 N   0  0  0  0  0  0  0  0  0  0  0  0
   13.7000   21.2020   31.8840 C   0  0  0  0  0  0  0  0  0  0  0  0
   13.6440   22.0070   30.7440 C   0  0  0  0  0  0  0  0  0  0  0  0
   16.9902   22.3899   30.1726 H   0  0  0  0  0  0  0  0  0  0  0  0
   17.0938   20.9891   32.2387 H   0  0  0  0  0  0  0  0  0  0  0  0
   16.7220   20.6646   34.6792 H   0  0  0  0  0  0  0  0  0  0  0  0
   15.6046   17.9351   37.3007 H   0  0  0  0  0  0  0  0  0  0  0  0
   17.1666   18.6788   36.6924 H   0  0  0  0  0  0  0  0  0  0  0  0
   16.7110   20.4430   38.0730 H   0  0  0  0  0  0  0  0  0  0  0  0
   14.4473   18.8828   39.7603 H   0  0  0  0  0  0  0  0  0  0  0  0
   12.1859   19.6475   40.4578 H   0  0  0  0  0  0  0  0  0  0  0  0
   11.0865   21.5469   39.2710 H   0  0  0  0  0  0  0  0  0  0  0  0
   14.5607   21.9540   36.7340 H   0  0  0  0  0  0  0  0  0  0  0  0
   13.9590   17.6140   37.4416 H   0  0  0  0  0  0  0  0  0  0  0  0
   12.6891   15.6380   38.2727 H   0  0  0  0  0  0  0  0  0  0  0  0
   12.0555   14.3395   34.2075 H   0  0  0  0  0  0  0  0  0  0  0  0
   13.2838   16.3414   33.3642 H   0  0  0  0  0  0  0  0  0  0  0  0
   12.7677   20.8733   32.3665 H   0  0  0  0  0  0  0  0  0  0  0  0
   12.6683   22.3077   30.3346 H   0  0  0  0  0  0  0  0  0  0  0  0
  1  2  2  0
  2  3  1  0
  2  4  1  0
  4  5  2  0
  5  6  1  0
  6  7  2  0
  7  8  1  0
  8  9  1  0
  9 10  2  0
 10 11  1  0
 11 12  1  0
 12 13  1  0
 13 14  2  0
 14 15  1  0
 15 16  2  0
 16 17  1  0
 17 18  1  0
 17 19  2  0
 10 20  1  0
 20 21  1  0
 21 22  2  0
 22 23  1  0
 23 24  2  0
 24 25  1  0
 24 26  1  0
 26 27  2  0
 20 28  2  0
  7 29  1  0
 29 30  2  0
 30  4  1  0
 28  8  1  0
 19 13  1  0
 27 21  1  0
  5 31  1  0
  6 32  1  0
  9 33  1  0
 11 34  1  0
 11 35  1  0
 12 36  1  0
 14 37  1  0
 15 38  1  0
 16 39  1  0
 19 40  1  0
 22 41  1  0
 23 42  1  0
 26 43  1  0
 27 44  1  0
 29 45  1  0
 30 46  1  0
M  CHG  1   3  -1
M  END
>  <meeko>  (20) 
{"is_sidechain": [false], "free_energy": -4.799, "intermolecular_energy": -7.588, "internal_energy": -1.148}

> <PREPARED_BY>
siam chowdhury
Computational and Medicinal Chemistry
[Dr. Alam's Research Team] www.alamresearch.org
Arkansas State University

$$$$
