
 OpenBabel09272601513D

 46 49  0  0  0  0  0  0  0  0999 V2000
    2.5254    1.2579    1.2132 O   0  5  0  0  0  0  0  0  0  0  0  0
    1.4995   -0.4249    0.1139 O   0  0  0  0  0  0  0  0  0  0  0  0
    2.3133    0.4819    0.1307 C   0  0  0  0  0  0  0  0  0  0  0  0
    7.6390    0.2236  -10.6171 C   0  0  0  0  0  0  0  0  0  0  0  0
    8.0686   -0.2703  -11.8518 C   0  0  0  0  0  0  0  0  0  0  0  0
    9.0185   -1.2839  -11.9029 C   0  0  0  0  0  0  0  0  0  0  0  0
    9.5490   -1.7802  -10.7165 C   0  0  0  0  0  0  0  0  0  0  0  0
    9.1214   -1.2843   -9.4829 C   0  0  0  0  0  0  0  0  0  0  0  0
    8.1235   -0.3026   -9.4117 C   0  0  0  0  0  0  0  0  0  0  0  0
    7.7651    0.2029   -8.1573 N   0  0  0  0  0  0  0  0  0  0  0  0
    6.4522    0.8209   -8.0015 C   0  0  0  0  0  0  0  0  0  0  0  0
    9.1035    6.9389   -8.5622 F   0  0  0  0  0  0  0  0  0  0  0  0
    8.2029    3.5567   -7.6214 C   0  0  0  0  0  0  0  0  0  0  0  0
    8.8618    4.6188   -8.2460 C   0  0  0  0  0  0  0  0  0  0  0  0
    8.4643    5.9185   -7.9773 C   0  0  0  0  0  0  0  0  0  0  0  0
    7.4154    6.1731   -7.0997 C   0  0  0  0  0  0  0  0  0  0  0  0
    6.7467    5.1067   -6.4862 C   0  0  0  0  0  0  0  0  0  0  0  0
    7.1263    3.7798   -6.7447 C   0  0  0  0  0  0  0  0  0  0  0  0
    5.9013    2.7641   -4.8685 N   0  0  0  0  0  0  0  0  0  0  0  0
    6.4275    2.6534   -6.1031 C   0  0  0  0  0  0  0  0  0  0  0  0
    6.1794    1.3526   -6.6361 C   0  0  0  0  0  0  0  0  0  0  0  0
    5.5860    0.6588   -5.6064 C   0  0  0  0  0  0  0  0  0  0  0  0
    5.3935    1.5385   -4.5726 N   0  0  0  0  0  0  0  0  0  0  0  0
    3.6647    2.0862   -1.3063 C   0  0  0  0  0  0  0  0  0  0  0  0
    4.4320    2.3228   -2.4568 C   0  0  0  0  0  0  0  0  0  0  0  0
    4.7031    1.2798   -3.3546 C   0  0  0  0  0  0  0  0  0  0  0  0
    4.2342   -0.0113   -3.0628 C   0  0  0  0  0  0  0  0  0  0  0  0
    3.4818   -0.2480   -1.9104 C   0  0  0  0  0  0  0  0  0  0  0  0
    3.1873    0.7969   -1.0302 C   0  0  0  0  0  0  0  0  0  0  0  0
   10.8671   -3.1344  -10.7773 Br  0  0  0  0  0  0  0  0  0  0  0  0
    6.9504    0.9918  -10.5924 H   0  0  0  0  0  0  0  0  0  0  0  0
    7.6806    0.1176  -12.7259 H   0  0  0  0  0  0  0  0  0  0  0  0
    9.3269   -1.6642  -12.8113 H   0  0  0  0  0  0  0  0  0  0  0  0
    9.5450   -1.6448   -8.6137 H   0  0  0  0  0  0  0  0  0  0  0  0
    8.3857    0.1429   -7.3954 H   0  0  0  0  0  0  0  0  0  0  0  0
    5.7078    0.0870   -8.2296 H   0  0  0  0  0  0  0  0  0  0  0  0
    6.4290    1.6595   -8.6657 H   0  0  0  0  0  0  0  0  0  0  0  0
    8.5123    2.5898   -7.8070 H   0  0  0  0  0  0  0  0  0  0  0  0
    9.6377    4.4367   -8.9016 H   0  0  0  0  0  0  0  0  0  0  0  0
    7.1310    7.1451   -6.9014 H   0  0  0  0  0  0  0  0  0  0  0  0
    5.9671    5.2979   -5.8375 H   0  0  0  0  0  0  0  0  0  0  0  0
    5.3322   -0.3414   -5.6115 H   0  0  0  0  0  0  0  0  0  0  0  0
    3.4510    2.8632   -0.6615 H   0  0  0  0  0  0  0  0  0  0  0  0
    4.7988    3.2692   -2.6435 H   0  0  0  0  0  0  0  0  0  0  0  0
    4.4472   -0.7909   -3.7047 H   0  0  0  0  0  0  0  0  0  0  0  0
    3.1410   -1.2008   -1.7075 H   0  0  0  0  0  0  0  0  0  0  0  0
  3  1  1  0  0  0  0
  3  2  2  0  0  0  0
  4  5  2  0  0  0  0
  4 31  1  0  0  0  0
  5  6  1  0  0  0  0
  5 32  1  0  0  0  0
  6  7  2  0  0  0  0
  6 33  1  0  0  0  0
  7  8  1  0  0  0  0
  7 30  1  0  0  0  0
  8  9  2  0  0  0  0
  8 34  1  0  0  0  0
  9  4  1  0  0  0  0
 10  9  1  0  0  0  0
 10 35  1  0  0  0  0
 11 10  1  0  0  0  0
 11 36  1  0  0  0  0
 11 37  1  0  0  0  0
 13 14  2  0  0  0  0
 13 38  1  0  0  0  0
 14 15  1  0  0  0  0
 14 39  1  0  0  0  0
 15 12  1  0  0  0  0
 15 16  2  0  0  0  0
 16 17  1  0  0  0  0
 16 40  1  0  0  0  0
 17 18  2  0  0  0  0
 17 41  1  0  0  0  0
 18 13  1  0  0  0  0
 19 23  1  0  0  0  0
 20 18  1  0  0  0  0
 20 19  2  0  0  0  0
 21 11  1  0  0  0  0
 21 20  1  0  0  0  0
 22 21  2  0  0  0  0
 22 23  1  0  0  0  0
 22 42  1  0  0  0  0
 24 29  2  0  0  0  0
 24 43  1  0  0  0  0
 25 24  1  0  0  0  0
 25 44  1  0  0  0  0
 26 23  1  0  0  0  0
 26 25  2  0  0  0  0
 27 26  1  0  0  0  0
 27 45  1  0  0  0  0
 28 27  2  0  0  0  0
 28 46  1  0  0  0  0
 29  3  1  0  0  0  0
 29 28  1  0  0  0  0
M  CHG  1   1  -1
M  END
>  <Energy>
69.5978

> <PREPARED_BY>
siam chowdhury
Computational and Medicinal Chemistry
[Dr. Alam's Research Team] www.alamresearch.org
Arkansas State University

$$$$
