# siam chowdhury
# Computational and Medicinal Chemistry
# [Dr. Alam's Research Team] www.alamresearch.org
# Arkansas State University
# 9sa23 best docked pose (7L00 FabK)
@<TRIPOS>MOLECULE
9sa23_out
 46 49 0 0 0
SMALL
GASTEIGER

@<TRIPOS>ATOM
      1 O           6.0640   14.0670   30.6130 O.co2   1  UNL1       -0.5446
      2 C           6.3030   14.2570   31.7920 C.2     1  UNL1        0.0717
      3 O           5.3720   14.1300   32.7600 O.co2   1  UNL1       -0.5446
      4 C           7.6600   14.6080   32.2900 C.ar    1  UNL1       -0.0026
      5 C           8.0390   14.4970   33.6350 C.ar    1  UNL1       -0.0509
      6 C           9.3160   14.9080   34.0450 C.ar    1  UNL1       -0.0357
      7 C          10.2140   15.4590   33.1190 C.ar    1  UNL1        0.0654
      8 N          11.4720   15.9690   33.5490 N.ar    1  UNL1       -0.2390
      9 C          12.2750   16.8450   32.8680 C.ar    1  UNL1        0.0365
     10 C          13.3220   17.1790   33.6970 C.ar    1  UNL1        0.0153
     11 C          14.3670   18.2030   33.4120 C.3     1  UNL1        0.0379
     12 N          14.1460   19.4890   34.0660 N.pl3   1  UNL1       -0.3396
     13 C          14.6500   19.6780   35.3580 C.ar    1  UNL1        0.0284
     14 C          15.9620   19.3500   35.7240 C.ar    1  UNL1       -0.0408
     15 C          16.4470   19.6120   37.0090 C.ar    1  UNL1       -0.0590
     16 C          15.6320   20.2380   37.9450 C.ar    1  UNL1       -0.0476
     17 C          14.3450   20.6210   37.5790 C.ar    1  UNL1        0.0196
     18 BR         13.2420   21.5060   38.8350 Br      1  UNL1       -0.0502
     19 C          13.8630   20.3610   36.2950 C.ar    1  UNL1       -0.0269
     20 C          13.1460   16.3600   34.8520 C.ar    1  UNL1        0.0978
     21 C          14.0290   16.2420   36.0250 C.ar    1  UNL1        0.0026
     22 C          13.6670   16.8080   37.2600 C.ar    1  UNL1       -0.0498
     23 C          14.4920   16.6890   38.3820 C.ar    1  UNL1       -0.0258
     24 C          15.7010   16.0230   38.2690 C.ar    1  UNL1        0.1234
     25 F          16.5000   15.9200   39.3390 F       1  UNL1       -0.2055
     26 C          16.0960   15.4680   37.0570 C.ar    1  UNL1       -0.0258
     27 C          15.2620   15.5760   35.9370 C.ar    1  UNL1       -0.0498
     28 N          11.9930   15.6690   34.7680 N.ar    1  UNL1       -0.1661
     29 C           9.8330   15.5520   31.7700 C.ar    1  UNL1       -0.0357
     30 C           8.5650   15.1300   31.3620 C.ar    1  UNL1       -0.0509
     31 H           7.3326   14.0862   34.3714 H       1  UNL1        0.0625
     32 H           9.6146   14.7976   35.0979 H       1  UNL1        0.0639
     33 H          12.1128   17.2145   31.8447 H       1  UNL1        0.0834
     34 H          15.3367   17.8079   33.7491 H       1  UNL1        0.0512
     35 H          14.3337   18.3921   32.3289 H       1  UNL1        0.0512
     36 H          13.6520   20.2080   33.6090 H       1  UNL1        0.1464
     37 H          16.6246   18.8763   34.9847 H       1  UNL1        0.0636
     38 H          17.4733   19.3228   37.2792 H       1  UNL1        0.0618
     39 H          16.0002   20.4286   38.9639 H       1  UNL1        0.0629
     40 H          12.8533   20.6962   36.0153 H       1  UNL1        0.0647
     41 H          12.7164   17.3549   37.3449 H       1  UNL1        0.0625
     42 H          14.1838   17.1203   39.3458 H       1  UNL1        0.0646
     43 H          17.0608   14.9456   36.9779 H       1  UNL1        0.0646
     44 H          15.5759   15.1349   34.9794 H       1  UNL1        0.0625
     45 H          10.5375   15.9597   31.0301 H       1  UNL1        0.0639
     46 H           8.2773   15.2092   30.3033 H       1  UNL1        0.0625
@<TRIPOS>UNITY_ATOM_ATTR
3 1
charge -1
@<TRIPOS>BOND
     1     1     2   ar
     2     2     3   ar
     3     2     4    1
     4     4     5   ar
     5     5     6   ar
     6     6     7   ar
     7     7     8    1
     8     8     9   ar
     9     9    10   ar
    10    10    11    1
    11    11    12    1
    12    12    13    1
    13    13    14   ar
    14    14    15   ar
    15    15    16   ar
    16    16    17   ar
    17    17    18    1
    18    17    19   ar
    19    10    20   ar
    20    20    21    1
    21    21    22   ar
    22    22    23   ar
    23    23    24   ar
    24    24    25    1
    25    24    26   ar
    26    26    27   ar
    27    20    28   ar
    28     7    29   ar
    29    29    30   ar
    30    30     4   ar
    31    28     8   ar
    32    19    13   ar
    33    27    21   ar
    34     5    31    1
    35     6    32    1
    36     9    33    1
    37    11    34    1
    38    11    35    1
    39    12    36    1
    40    14    37    1
    41    15    38    1
    42    16    39    1
    43    19    40    1
    44    22    41    1
    45    23    42    1
    46    26    43    1
    47    27    44    1
    48    29    45    1
    49    30    46    1
