@<TRIPOS>MOLECULE
LIG
   49    52     1     0     0
SMALL
bcc


@<TRIPOS>ATOM
      1 O1           4.4900    14.9460    31.0090 o          1 LIG      -0.819300
      2 C1           5.3590    14.0910    31.0370 c          1 LIG       0.908200
      3 O2           5.2030    12.8640    30.5020 o          1 LIG      -0.819300
      4 C2           6.7000    14.3330    31.6350 ca         1 LIG      -0.109600
      5 C3           6.9120    14.4400    33.0150 ca         1 LIG      -0.102500
      6 C4           8.1890    14.7500    33.5080 ca         1 LIG      -0.146000
      7 C5           9.2520    14.9840    32.6230 ca         1 LIG      -0.050200
      8 N1          10.5150    15.4230    33.1230 na         1 LIG       0.213300
      9 C6          11.3120    14.7650    34.0240 cc         1 LIG      -0.118300
     10 C7          12.5020    15.4540    34.1010 cd         1 LIG      -0.303600
     11 C8          13.7110    15.0230    34.8620 c3         1 LIG       0.280100
     12 N2          13.5350    15.0480    36.3110 nu         1 LIG      -0.738600
     13 C9          14.2880    15.9190    37.0940 ca         1 LIG       0.158600
     14 C10         15.6080    15.6700    37.4820 ca         1 LIG      -0.150000
     15 C11         16.3420    16.6230    38.1930 ca         1 LIG      -0.128000
     16 C12         15.7690    17.8500    38.5040 ca         1 LIG       0.110900
     17 F1          16.5000    18.7390    39.1850 f          1 LIG      -0.132900
     18 C13         14.4740    18.1520    38.1040 ca         1 LIG      -0.160300
     19 C14         13.8480    19.4760    38.4130 c3         1 LIG       0.693200
     20 F2          13.7640    19.7870    39.7330 f          1 LIG      -0.235967
     21 F3          14.5200    20.5100    37.8310 f          1 LIG      -0.235967
     22 F4          12.5730    19.5580    37.9340 f          1 LIG      -0.235967
     23 C15         13.7510    17.1830    37.3840 ca         1 LIG      -0.145000
     24 C16         12.3030    16.6150    33.2950 cd         1 LIG       0.342800
     25 C17         13.2190    17.7490    33.0840 ca         1 LIG      -0.109500
     26 C18         12.8950    18.7880    32.1940 ca         1 LIG      -0.090500
     27 C19         13.7530    19.8760    32.0100 ca         1 LIG      -0.170000
     28 C20         14.9570    19.9180    32.6980 ca         1 LIG       0.115900
     29 F5          15.7840    20.9560    32.5150 f          1 LIG      -0.148900
     30 C21         15.3140    18.8960    33.5650 ca         1 LIG      -0.170000
     31 C22         14.4490    17.8130    33.7600 ca         1 LIG      -0.090500
     32 N3          11.1090    16.5570    32.6760 nc         1 LIG      -0.486800
     33 C23          9.0380    14.8470    31.2440 ca         1 LIG      -0.146000
     34 C24          7.7690    14.5260    30.7550 ca         1 LIG      -0.102500
     35 H1           6.0770    14.2810    33.7130 ha         1 LIG       0.163500
     36 H2           8.3570    14.8100    34.5930 ha         1 LIG       0.126000
     37 H3          11.0490    13.8540    34.5830 h4         1 LIG       0.188000
     38 H4          13.9620    13.9950    34.5610 h1         1 LIG       0.048700
     39 H5          14.5110    15.7390    34.6240 h1         1 LIG       0.048700
     40 H6          12.8820    14.4470    36.7360 hn         1 LIG       0.418800
     41 H7          16.0760    14.7090    37.2230 ha         1 LIG       0.148000
     42 H8          17.3730    16.4020    38.5060 ha         1 LIG       0.151000
     43 H9          12.7350    17.4230    37.0380 ha         1 LIG       0.157000
     44 H10         11.9500    18.7440    31.6330 ha         1 LIG       0.146000
     45 H11         13.4760    20.6920    31.3260 ha         1 LIG       0.145500
     46 H12         16.2750    18.9360    34.0980 ha         1 LIG       0.145500
     47 H13         14.7350    17.0050    34.4490 ha         1 LIG       0.146000
     48 H14          9.8730    14.9930    30.5440 ha         1 LIG       0.126000
     49 H15          7.6100    14.4250    29.6710 ha         1 LIG       0.163500
@<TRIPOS>BOND
     1     1     2 1   
     2     2     3 1   
     3     2     4 1   
     4     4     5 ar  
     5     5     6 ar  
     6     5    35 1   
     7     6     7 ar  
     8     6    36 1   
     9     7     8 1   
    10     7    33 ar  
    11     8     9 1   
    12     9    10 2   
    13     9    37 1   
    14    10    11 1   
    15    10    24 1   
    16    11    12 1   
    17    11    38 1   
    18    11    39 1   
    19    12    13 1   
    20    12    40 1   
    21    13    14 ar  
    22    14    15 ar  
    23    14    41 1   
    24    15    16 ar  
    25    15    42 1   
    26    16    17 1   
    27    16    18 ar  
    28    18    19 1   
    29    18    23 ar  
    30    19    20 1   
    31    19    21 1   
    32    19    22 1   
    33    23    13 ar  
    34    23    43 1   
    35    24    25 1   
    36    24    32 2   
    37    25    26 ar  
    38    26    27 ar  
    39    26    44 1   
    40    27    28 ar  
    41    27    45 1   
    42    28    29 1   
    43    28    30 ar  
    44    30    31 ar  
    45    30    46 1   
    46    31    25 ar  
    47    31    47 1   
    48    32     8 1   
    49    33    34 ar  
    50    33    48 1   
    51    34     4 ar  
    52    34    49 1   
@<TRIPOS>SUBSTRUCTURE
     1 LIG         1 TEMP              0 ****  ****    0 ROOT
