@<TRIPOS>MOLECULE
25sa23_out
 49 52 0 0 0
SMALL
GASTEIGER

@<TRIPOS>ATOM
      1 O          15.4480   18.2800   32.9450 O.co2   1  UNL1       -0.5446
      2 C          14.4500   18.8760   33.3170 C.2     1  UNL1        0.0717
      3 O          14.3130   19.3920   34.5540 O.co2   1  UNL1       -0.5446
      4 C          13.2710   19.0870   32.4430 C.ar    1  UNL1       -0.0026
      5 C          13.0480   20.3560   31.8900 C.ar    1  UNL1       -0.0509
      6 C          11.9090   20.5980   31.1120 C.ar    1  UNL1       -0.0357
      7 C          10.9800   19.5690   30.8970 C.ar    1  UNL1        0.0654
      8 N           9.7740   19.8210   30.1830 N.ar    1  UNL1       -0.2390
      9 C           8.5210   19.4040   30.5480 C.ar    1  UNL1        0.0365
     10 C           7.6330   19.9120   29.6290 C.ar    1  UNL1        0.0153
     11 C           6.1560   19.7450   29.6850 C.3     1  UNL1        0.0379
     12 N           5.6540   18.7270   28.7650 N.pl3   1  UNL1       -0.3395
     13 C           4.9480   17.6380   29.2750 C.ar    1  UNL1        0.0306
     14 C           3.5540   17.5460   29.2450 C.ar    1  UNL1       -0.0056
     15 C           2.9090   16.4030   29.6950 C.ar    1  UNL1        0.1257
     16 F           1.5730   16.3500   29.6640 F       1  UNL1       -0.2054
     17 C           3.6240   15.3130   30.1720 C.ar    1  UNL1       -0.0147
     18 C           5.0210   15.3540   30.1780 C.ar    1  UNL1        0.0593
     19 C           5.8310   14.1850   30.6740 C.3     1  UNL1        0.4176
     20 F           5.6090   13.8850   31.9840 F       1  UNL1       -0.1659
     21 F           5.5790   13.0420   29.9790 F       1  UNL1       -0.1659
     22 F           7.1710   14.4030   30.5640 F       1  UNL1       -0.1659
     23 C           5.6680   16.5140   29.7110 C.ar    1  UNL1       -0.0290
     24 C           8.4460   20.5890   28.6730 C.ar    1  UNL1        0.0978
     25 C           8.0230   21.2570   27.4320 C.ar    1  UNL1        0.0026
     26 C           7.8200   22.6480   27.3930 C.ar    1  UNL1       -0.0498
     27 C           7.4290   23.2880   26.2150 C.ar    1  UNL1       -0.0258
     28 C           7.2140   22.5370   25.0720 C.ar    1  UNL1        0.1234
     29 F           6.8220   23.1480   23.9460 F       1  UNL1       -0.2055
     30 C           7.3890   21.1580   25.0830 C.ar    1  UNL1       -0.0258
     31 C           7.7950   20.5190   26.2610 C.ar    1  UNL1       -0.0498
     32 N           9.7380   20.5620   29.0500 N.ar    1  UNL1       -0.1661
     33 C          11.2260   18.2950   31.4360 C.ar    1  UNL1       -0.0357
     34 C          12.3550   18.0580   32.2170 C.ar    1  UNL1       -0.0509
     35 H          13.7712   21.1654   32.0681 H       1  UNL1        0.0625
     36 H          11.7433   21.5919   30.6708 H       1  UNL1        0.0639
     37 H           8.2711   18.7776   31.4170 H       1  UNL1        0.0834
     38 H           5.8757   19.4585   30.7094 H       1  UNL1        0.0512
     39 H           5.7082   20.7040   29.3854 H       1  UNL1        0.0512
     40 H           5.8120   18.8080   27.7980 H       1  UNL1        0.1464
     41 H           2.9614   18.3891   28.8603 H       1  UNL1        0.0665
     42 H           3.0946   14.4229   30.5428 H       1  UNL1        0.0652
     43 H           6.7674   16.5405   29.6870 H       1  UNL1        0.0641
     44 H           7.9718   23.2422   28.3062 H       1  UNL1        0.0625
     45 H           7.2930   24.3794   26.1954 H       1  UNL1        0.0646
     46 H           7.2093   20.5712   24.1701 H       1  UNL1        0.0646
     47 H           7.9365   19.4282   26.2682 H       1  UNL1        0.0625
     48 H          10.5192   17.4755   31.2391 H       1  UNL1        0.0639
     49 H          12.5242   17.0630   32.6543 H       1  UNL1        0.0625
@<TRIPOS>UNITY_ATOM_ATTR
3 1
charge -1
@<TRIPOS>BOND
     1     1     2   ar
     2     2     3   ar
     3     2     4    1
     4     4     5   ar
     5     5     6   ar
     6     6     7   ar
     7     7     8    1
     8     8     9   ar
     9     9    10   ar
    10    10    11    1
    11    11    12    1
    12    12    13    1
    13    13    14   ar
    14    14    15   ar
    15    15    16    1
    16    15    17   ar
    17    17    18   ar
    18    18    19    1
    19    19    20    1
    20    19    21    1
    21    19    22    1
    22    18    23   ar
    23    10    24   ar
    24    24    25    1
    25    25    26   ar
    26    26    27   ar
    27    27    28   ar
    28    28    29    1
    29    28    30   ar
    30    30    31   ar
    31    24    32   ar
    32     7    33   ar
    33    33    34   ar
    34    34     4   ar
    35    32     8   ar
    36    23    13   ar
    37    31    25   ar
    38     5    35    1
    39     6    36    1
    40     9    37    1
    41    11    38    1
    42    11    39    1
    43    12    40    1
    44    14    41    1
    45    17    42    1
    46    23    43    1
    47    26    44    1
    48    27    45    1
    49    30    46    1
    50    31    47    1
    51    33    48    1
    52    34    49    1
