25sa23_out
 OpenBabel09272602543D

 49 52  0  0  0  0  0  0  0  0999 V2000
   15.4480   18.2800   32.9450 O   0  0  0  0  0  0  0  0  0  0  0  0
   14.4500   18.8760   33.3170 C   0  0  0  0  0  0  0  0  0  0  0  0
   14.3130   19.3920   34.5540 O   0  5  0  0  0  0  0  0  0  0  0  0
   13.2710   19.0870   32.4430 C   0  0  0  0  0  0  0  0  0  0  0  0
   13.0480   20.3560   31.8900 C   0  0  0  0  0  0  0  0  0  0  0  0
   11.9090   20.5980   31.1120 C   0  0  0  0  0  0  0  0  0  0  0  0
   10.9800   19.5690   30.8970 C   0  0  0  0  0  0  0  0  0  0  0  0
    9.7740   19.8210   30.1830 N   0  0  0  0  0  0  0  0  0  0  0  0
    8.5210   19.4040   30.5480 C   0  0  0  0  0  0  0  0  0  0  0  0
    7.6330   19.9120   29.6290 C   0  0  0  0  0  0  0  0  0  0  0  0
    6.1560   19.7450   29.6850 C   0  0  0  0  0  0  0  0  0  0  0  0
    5.6540   18.7270   28.7650 N   0  0  0  0  0  0  0  0  0  0  0  0
    4.9480   17.6380   29.2750 C   0  0  0  0  0  0  0  0  0  0  0  0
    3.5540   17.5460   29.2450 C   0  0  0  0  0  0  0  0  0  0  0  0
    2.9090   16.4030   29.6950 C   0  0  0  0  0  0  0  0  0  0  0  0
    1.5730   16.3500   29.6640 F   0  0  0  0  0  0  0  0  0  0  0  0
    3.6240   15.3130   30.1720 C   0  0  0  0  0  0  0  0  0  0  0  0
    5.0210   15.3540   30.1780 C   0  0  0  0  0  0  0  0  0  0  0  0
    5.8310   14.1850   30.6740 C   0  0  0  0  0  0  0  0  0  0  0  0
    5.6090   13.8850   31.9840 F   0  0  0  0  0  0  0  0  0  0  0  0
    5.5790   13.0420   29.9790 F   0  0  0  0  0  0  0  0  0  0  0  0
    7.1710   14.4030   30.5640 F   0  0  0  0  0  0  0  0  0  0  0  0
    5.6680   16.5140   29.7110 C   0  0  0  0  0  0  0  0  0  0  0  0
    8.4460   20.5890   28.6730 C   0  0  0  0  0  0  0  0  0  0  0  0
    8.0230   21.2570   27.4320 C   0  0  0  0  0  0  0  0  0  0  0  0
    7.8200   22.6480   27.3930 C   0  0  0  0  0  0  0  0  0  0  0  0
    7.4290   23.2880   26.2150 C   0  0  0  0  0  0  0  0  0  0  0  0
    7.2140   22.5370   25.0720 C   0  0  0  0  0  0  0  0  0  0  0  0
    6.8220   23.1480   23.9460 F   0  0  0  0  0  0  0  0  0  0  0  0
    7.3890   21.1580   25.0830 C   0  0  0  0  0  0  0  0  0  0  0  0
    7.7950   20.5190   26.2610 C   0  0  0  0  0  0  0  0  0  0  0  0
    9.7380   20.5620   29.0500 N   0  0  0  0  0  0  0  0  0  0  0  0
   11.2260   18.2950   31.4360 C   0  0  0  0  0  0  0  0  0  0  0  0
   12.3550   18.0580   32.2170 C   0  0  0  0  0  0  0  0  0  0  0  0
   13.7712   21.1654   32.0681 H   0  0  0  0  0  0  0  0  0  0  0  0
   11.7433   21.5919   30.6708 H   0  0  0  0  0  0  0  0  0  0  0  0
    8.2711   18.7776   31.4170 H   0  0  0  0  0  0  0  0  0  0  0  0
    5.8757   19.4585   30.7094 H   0  0  0  0  0  0  0  0  0  0  0  0
    5.7082   20.7040   29.3854 H   0  0  0  0  0  0  0  0  0  0  0  0
    5.8120   18.8080   27.7980 H   0  0  0  0  0  0  0  0  0  0  0  0
    2.9614   18.3891   28.8603 H   0  0  0  0  0  0  0  0  0  0  0  0
    3.0946   14.4229   30.5428 H   0  0  0  0  0  0  0  0  0  0  0  0
    6.7674   16.5405   29.6870 H   0  0  0  0  0  0  0  0  0  0  0  0
    7.9718   23.2422   28.3062 H   0  0  0  0  0  0  0  0  0  0  0  0
    7.2930   24.3794   26.1954 H   0  0  0  0  0  0  0  0  0  0  0  0
    7.2093   20.5712   24.1701 H   0  0  0  0  0  0  0  0  0  0  0  0
    7.9365   19.4282   26.2682 H   0  0  0  0  0  0  0  0  0  0  0  0
   10.5192   17.4755   31.2391 H   0  0  0  0  0  0  0  0  0  0  0  0
   12.5242   17.0630   32.6543 H   0  0  0  0  0  0  0  0  0  0  0  0
  1  2  2  0  0  0  0
  2  3  1  0  0  0  0
  2  4  1  0  0  0  0
  4  5  2  0  0  0  0
  5  6  1  0  0  0  0
  5 35  1  0  0  0  0
  6  7  2  0  0  0  0
  6 36  1  0  0  0  0
  7  8  1  0  0  0  0
  7 33  1  0  0  0  0
  8  9  1  0  0  0  0
  9 10  2  0  0  0  0
  9 37  1  0  0  0  0
 10 11  1  0  0  0  0
 10 24  1  0  0  0  0
 11 12  1  0  0  0  0
 11 38  1  0  0  0  0
 11 39  1  0  0  0  0
 12 13  1  0  0  0  0
 12 40  1  0  0  0  0
 13 14  2  0  0  0  0
 14 15  1  0  0  0  0
 14 41  1  0  0  0  0
 15 16  1  0  0  0  0
 15 17  2  0  0  0  0
 17 18  1  0  0  0  0
 17 42  1  0  0  0  0
 18 19  1  0  0  0  0
 18 23  2  0  0  0  0
 19 20  1  0  0  0  0
 19 21  1  0  0  0  0
 19 22  1  0  0  0  0
 23 13  1  0  0  0  0
 23 43  1  0  0  0  0
 24 25  1  0  0  0  0
 24 32  2  0  0  0  0
 25 26  2  0  0  0  0
 26 27  1  0  0  0  0
 26 44  1  0  0  0  0
 27 28  2  0  0  0  0
 27 45  1  0  0  0  0
 28 29  1  0  0  0  0
 28 30  1  0  0  0  0
 30 31  2  0  0  0  0
 30 46  1  0  0  0  0
 31 25  1  0  0  0  0
 31 47  1  0  0  0  0
 32  8  1  0  0  0  0
 33 34  2  0  0  0  0
 33 48  1  0  0  0  0
 34  4  1  0  0  0  0
 34 49  1  0  0  0  0
M  CHG  1   3  -1
M  END
>  <meeko>
{"is_sidechain": [false], "free_energy": -8.185, "intermolecular_energy": -11.534, "internal_energy": -1.272}

>  <PREPARED_BY>
siam chowdhury
Computational and Medicinal Chemistry
[Dr. Alam's Research Team] www.alamresearch.org
Arkansas State University

$$$$
