XCJ_redock_out
 OpenBabel09252622593D

 41 44  0  0  0  0  0  0  0  0999 V2000
   14.5010   15.7440   36.9520 C   0  0  0  0  0  0  0  0  0  0  0  0
   14.2710   15.6250   35.1970 S   0  0  0  0  0  0  0  0  0  0  0  0
   14.5500   16.9240   34.6150 O   0  0  0  0  0  0  0  0  0  0  0  0
   14.9590   14.4370   34.7290 O   0  0  0  0  0  0  0  0  0  0  0  0
   12.5250   15.3310   35.0350 C   0  0  0  0  0  0  0  0  0  0  0  0
   11.7530   15.0860   36.1710 C   0  0  0  0  0  0  0  0  0  0  0  0
   10.3760   14.8550   36.0410 C   0  0  0  0  0  0  0  0  0  0  0  0
    9.7790   14.8500   34.7620 C   0  0  0  0  0  0  0  0  0  0  0  0
    8.4370   14.6500   34.4790 N   0  0  0  0  0  0  0  0  0  0  0  0
    8.2530   14.6460   33.1810 C   0  0  0  0  0  0  0  0  0  0  0  0
    7.0130   14.4530   32.6260 N   0  0  0  0  0  0  0  0  0  0  0  0
    6.7040   14.4130   31.2840 C   0  0  0  0  0  0  0  0  0  0  0  0
    7.4930   14.5650   30.3520 O   0  0  0  0  0  0  0  0  0  0  0  0
    5.2280   14.2140   30.9670 C   0  0  0  0  0  0  0  0  0  0  0  0
    4.6230   15.3230   30.1690 C   0  0  0  0  0  0  0  0  0  0  0  0
    3.5010   16.0620   30.5000 C   0  0  0  0  0  0  0  0  0  0  0  0
    3.2190   17.2660   29.3130 S   0  0  0  0  0  0  0  0  0  0  0  0
    4.5680   16.7000   28.4410 C   0  0  0  0  0  0  0  0  0  0  0  0
    4.9300   17.3030   27.2270 N   0  0  0  0  0  0  0  0  0  0  0  0
    4.9810   16.6520   26.0030 C   0  0  0  0  0  0  0  0  0  0  0  0
    5.3600   17.5410   25.0220 C   0  0  0  0  0  0  0  0  0  0  0  0
    5.5780   18.7840   25.6500 C   0  0  0  0  0  0  0  0  0  0  0  0
    5.3070   18.6170   26.9900 C   0  0  0  0  0  0  0  0  0  0  0  0
    5.2230   15.6850   28.9670 N   0  0  0  0  0  0  0  0  0  0  0  0
    9.6290   14.9600   32.2310 S   0  0  0  0  0  0  0  0  0  0  0  0
   10.5920   15.0640   33.6460 C   0  0  0  0  0  0  0  0  0  0  0  0
   11.9680   15.3110   33.7530 C   0  0  0  0  0  0  0  0  0  0  0  0
   13.6373   15.2971   37.4661 H   0  0  0  0  0  0  0  0  0  0  0  0
   15.4169   15.2066   37.2390 H   0  0  0  0  0  0  0  0  0  0  0  0
   14.5914   16.8020   37.2390 H   0  0  0  0  0  0  0  0  0  0  0  0
   12.2230   15.0741   37.1655 H   0  0  0  0  0  0  0  0  0  0  0  0
    9.7611   14.6777   36.9357 H   0  0  0  0  0  0  0  0  0  0  0  0
    6.2650   14.3290   33.2530 H   0  0  0  0  0  0  0  0  0  0  0  0
    5.1195   13.2791   30.3977 H   0  0  0  0  0  0  0  0  0  0  0  0
    4.6964   14.1878   31.9297 H   0  0  0  0  0  0  0  0  0  0  0  0
    2.8808   15.9005   31.3940 H   0  0  0  0  0  0  0  0  0  0  0  0
    4.7534   15.5881   25.8408 H   0  0  0  0  0  0  0  0  0  0  0  0
    5.4716   17.3222   23.9498 H   0  0  0  0  0  0  0  0  0  0  0  0
    5.9038   19.7139   25.1610 H   0  0  0  0  0  0  0  0  0  0  0  0
    5.3785   19.4044   27.7548 H   0  0  0  0  0  0  0  0  0  0  0  0
   12.5871   15.4829   32.8601 H   0  0  0  0  0  0  0  0  0  0  0  0
  1  2  1  0  0  0  0
  1 28  1  0  0  0  0
  1 29  1  0  0  0  0
  1 30  1  0  0  0  0
  2  3  2  0  0  0  0
  2  4  2  0  0  0  0
  2  5  1  0  0  0  0
  5  6  2  0  0  0  0
  6  7  1  0  0  0  0
  6 31  1  0  0  0  0
  7  8  2  0  0  0  0
  7 32  1  0  0  0  0
  8  9  1  0  0  0  0
  9 10  2  0  0  0  0
 10 11  1  0  0  0  0
 10 25  1  0  0  0  0
 11 12  1  0  0  0  0
 11 33  1  0  0  0  0
 12 13  2  0  0  0  0
 12 14  1  0  0  0  0
 14 15  1  0  0  0  0
 14 34  1  0  0  0  0
 14 35  1  0  0  0  0
 15 16  2  0  0  0  0
 16 17  1  0  0  0  0
 16 36  1  0  0  0  0
 17 18  1  0  0  0  0
 18 19  1  0  0  0  0
 18 24  2  0  0  0  0
 19 20  1  0  0  0  0
 20 21  2  0  0  0  0
 20 37  1  0  0  0  0
 21 22  1  0  0  0  0
 21 38  1  0  0  0  0
 22 23  2  0  0  0  0
 22 39  1  0  0  0  0
 23 19  1  0  0  0  0
 23 40  1  0  0  0  0
 24 15  1  0  0  0  0
 25 26  1  0  0  0  0
 26 27  2  0  0  0  0
 26  8  1  0  0  0  0
 27  5  1  0  0  0  0
 27 41  1  0  0  0  0
M  END
>  <meeko>
{"is_sidechain": [false], "free_energy": -10.108, "intermolecular_energy": -13.063, "internal_energy": 0.411}

>  <PREPARED_BY>
siam chowdhury
Computational and Medicinal Chemistry
[Dr. Alam's Research Team] www.alamresearch.org
Arkansas State University

$$$$
