@<TRIPOS>MOLECULE
LIG
   46    49     1     0     0
SMALL
bcc


@<TRIPOS>ATOM
      1 O1           5.7960    14.0190    31.1090 o          1 LIG      -0.820300
      2 C1           6.1800    14.2460    32.2460 c          1 LIG       0.908200
      3 O2           5.3530    14.2380    33.3130 o          1 LIG      -0.820300
      4 C2           7.5900    14.5870    32.5670 ca         1 LIG      -0.110600
      5 C3           7.9820    14.5880    33.9110 ca         1 LIG      -0.102500
      6 C4           9.2950    14.9260    34.2660 ca         1 LIG      -0.146500
      7 C5          10.2260    15.2800    33.2780 ca         1 LIG      -0.047200
      8 N1          11.5590    15.6270    33.6520 na         1 LIG       0.214300
      9 C6          12.4570    14.8610    34.3520 cc         1 LIG      -0.140300
     10 C7          13.6070    15.6070    34.5090 cd         1 LIG      -0.304600
     11 C8          14.8620    15.1640    35.1980 c3         1 LIG       0.263100
     12 N2          14.6900    14.8930    36.6280 nu         1 LIG      -0.718600
     13 C9          14.9550    15.9090    37.5530 ca         1 LIG       0.173600
     14 C10         16.1660    15.8770    38.2640 ca         1 LIG      -0.198000
     15 C11         16.5000    16.8780    39.1830 ca         1 LIG      -0.079000
     16 C12         15.6370    17.9490    39.3800 ca         1 LIG      -0.212000
     17 C13         14.4540    18.0060    38.6540 ca         1 LIG       0.156900
     18 F1          13.6290    19.0470    38.8280 f          1 LIG      -0.146900
     19 C14         14.1120    17.0070    37.7440 ca         1 LIG      -0.232000
     20 C15         13.3080    16.8620    33.8940 cd         1 LIG       0.343800
     21 C16         14.1310    18.0810    33.8260 ca         1 LIG      -0.107500
     22 C17         14.8300    18.4210    32.6570 ca         1 LIG      -0.091500
     23 C18         15.6040    19.5800    32.5800 ca         1 LIG      -0.171500
     24 C19         15.7130    20.3970    33.6940 ca         1 LIG       0.112900
     25 F2          16.4680    21.5010    33.6280 f          1 LIG      -0.150900
     26 C20         15.0580    20.0740    34.8760 ca         1 LIG      -0.171500
     27 C21         14.2670    18.9220    34.9430 ca         1 LIG      -0.091500
     28 N3          12.0870    16.8330    33.3350 nc         1 LIG      -0.488800
     29 C22          9.8250    15.2910    31.9320 ca         1 LIG      -0.146500
     30 C23          8.5110    14.9520    31.5800 ca         1 LIG      -0.102500
     31 H1           7.2550    14.3220    34.6930 ha         1 LIG       0.162500
     32 H2           9.5970    14.9140    35.3240 ha         1 LIG       0.125000
     33 H3          12.2900    13.8380    34.7210 h4         1 LIG       0.182000
     34 H4          15.2180    14.2440    34.7110 h1         1 LIG       0.061700
     35 H5          15.5820    15.9920    35.1140 h1         1 LIG       0.061700
     36 H6          14.3910    14.0060    36.9340 hn         1 LIG       0.395800
     37 H7          16.8670    15.0470    38.0950 ha         1 LIG       0.140000
     38 H8          17.4420    16.8170    39.7470 ha         1 LIG       0.130000
     39 H9          15.8870    18.7410    40.1010 ha         1 LIG       0.142000
     40 H10         13.1740    17.0830    37.1740 ha         1 LIG       0.149000
     41 H11         14.7660    17.7590    31.7810 ha         1 LIG       0.151500
     42 H12         16.1220    19.8420    31.6450 ha         1 LIG       0.143000
     43 H13         15.1610    20.7230    35.7580 ha         1 LIG       0.143000
     44 H14         13.7460    18.6720    35.8790 ha         1 LIG       0.151500
     45 H15         10.5460    15.5670    31.1490 ha         1 LIG       0.125000
     46 H16          8.2040    14.9730    30.5240 ha         1 LIG       0.162500
@<TRIPOS>BOND
     1     1     2 1   
     2     2     3 1   
     3     2     4 1   
     4     4     5 ar  
     5     5     6 ar  
     6     5    31 1   
     7     6     7 ar  
     8     6    32 1   
     9     7     8 1   
    10     7    29 ar  
    11     8     9 1   
    12     9    10 2   
    13     9    33 1   
    14    10    11 1   
    15    10    20 1   
    16    11    12 1   
    17    11    34 1   
    18    11    35 1   
    19    12    13 1   
    20    12    36 1   
    21    13    14 ar  
    22    14    15 ar  
    23    14    37 1   
    24    15    16 ar  
    25    15    38 1   
    26    16    17 ar  
    27    16    39 1   
    28    17    18 1   
    29    17    19 ar  
    30    19    13 ar  
    31    19    40 1   
    32    20    21 1   
    33    20    28 2   
    34    21    22 ar  
    35    22    23 ar  
    36    22    41 1   
    37    23    24 ar  
    38    23    42 1   
    39    24    25 1   
    40    24    26 ar  
    41    26    27 ar  
    42    26    43 1   
    43    27    21 ar  
    44    27    44 1   
    45    28     8 1   
    46    29    30 ar  
    47    29    45 1   
    48    30     4 ar  
    49    30    46 1   
@<TRIPOS>SUBSTRUCTURE
     1 LIG         1 TEMP              0 ****  ****    0 ROOT
