@<TRIPOS>MOLECULE
LIG
   46    49     1     0     0
SMALL
bcc


@<TRIPOS>ATOM
      1 O1           6.0640    14.0670    30.6130 o          1 LIG      -0.820300
      2 C1           6.3030    14.2570    31.7920 c          1 LIG       0.908200
      3 O2           5.3720    14.1300    32.7600 o          1 LIG      -0.820300
      4 C2           7.6600    14.6080    32.2900 ca         1 LIG      -0.110600
      5 C3           8.0390    14.4970    33.6350 ca         1 LIG      -0.103000
      6 C4           9.3160    14.9080    34.0450 ca         1 LIG      -0.146000
      7 C5          10.2140    15.4590    33.1190 ca         1 LIG      -0.048200
      8 N1          11.4720    15.9690    33.5490 na         1 LIG       0.211300
      9 C6          12.2750    16.8450    32.8680 cc         1 LIG      -0.131300
     10 C7          13.3220    17.1790    33.6970 cd         1 LIG      -0.288600
     11 C8          14.3670    18.2030    33.4120 c3         1 LIG       0.274100
     12 N2          14.1460    19.4890    34.0660 nu         1 LIG      -0.731600
     13 C9          14.6500    19.6780    35.3580 ca         1 LIG       0.164600
     14 C10         15.9620    19.3500    35.7240 ca         1 LIG      -0.182000
     15 C11         16.4470    19.6120    37.0090 ca         1 LIG      -0.094000
     16 C12         15.6320    20.2380    37.9450 ca         1 LIG      -0.160000
     17 C13         14.3450    20.6210    37.5790 ca         1 LIG       0.017100
     18 Br1         13.2420    21.5060    38.8350 br         1 LIG      -0.107100
     19 C14         13.8630    20.3610    36.2950 ca         1 LIG      -0.174000
     20 C15         13.1460    16.3600    34.8520 cd         1 LIG       0.336800
     21 C16         14.0290    16.2420    36.0250 ca         1 LIG      -0.105500
     22 C17         13.6670    16.8080    37.2600 ca         1 LIG      -0.091500
     23 C18         14.4920    16.6890    38.3820 ca         1 LIG      -0.170000
     24 C19         15.7010    16.0230    38.2690 ca         1 LIG       0.113900
     25 F1          16.5000    15.9200    39.3390 f          1 LIG      -0.149900
     26 C20         16.0960    15.4680    37.0570 ca         1 LIG      -0.170000
     27 C21         15.2620    15.5760    35.9370 ca         1 LIG      -0.091500
     28 N3          11.9930    15.6690    34.7680 nc         1 LIG      -0.485800
     29 C22          9.8330    15.5520    31.7700 ca         1 LIG      -0.146000
     30 C23          8.5650    15.1300    31.3620 ca         1 LIG      -0.103000
     31 H1           7.3330    14.0860    34.3710 ha         1 LIG       0.163000
     32 H2           9.6150    14.7980    35.0980 ha         1 LIG       0.126000
     33 H3          12.1130    17.2150    31.8450 h4         1 LIG       0.188000
     34 H4          15.3370    17.8080    33.7490 h1         1 LIG       0.046700
     35 H5          14.3340    18.3920    32.3290 h1         1 LIG       0.046700
     36 H6          13.6520    20.2080    33.6090 hn         1 LIG       0.409800
     37 H7          16.6250    18.8760    34.9850 ha         1 LIG       0.137000
     38 H8          17.4730    19.3230    37.2790 ha         1 LIG       0.130000
     39 H9          16.0000    20.4290    38.9640 ha         1 LIG       0.140000
     40 H10         12.8530    20.6960    36.0150 ha         1 LIG       0.147000
     41 H11         12.7160    17.3550    37.3450 ha         1 LIG       0.147500
     42 H12         14.1840    17.1200    39.3460 ha         1 LIG       0.143500
     43 H13         17.0610    14.9460    36.9780 ha         1 LIG       0.143500
     44 H14         15.5760    15.1350    34.9790 ha         1 LIG       0.147500
     45 H15         10.5370    15.9600    31.0300 ha         1 LIG       0.126000
     46 H16          8.2770    15.2090    30.3030 ha         1 LIG       0.163000
@<TRIPOS>BOND
     1     1     2 1   
     2     2     3 1   
     3     2     4 1   
     4     4     5 ar  
     5     5     6 ar  
     6     5    31 1   
     7     6     7 ar  
     8     6    32 1   
     9     7     8 1   
    10     7    29 ar  
    11     8     9 1   
    12     9    10 2   
    13     9    33 1   
    14    10    11 1   
    15    10    20 1   
    16    11    12 1   
    17    11    34 1   
    18    11    35 1   
    19    12    13 1   
    20    12    36 1   
    21    13    14 ar  
    22    14    15 ar  
    23    14    37 1   
    24    15    16 ar  
    25    15    38 1   
    26    16    17 ar  
    27    16    39 1   
    28    17    18 1   
    29    17    19 ar  
    30    19    13 ar  
    31    19    40 1   
    32    20    21 1   
    33    20    28 2   
    34    21    22 ar  
    35    22    23 ar  
    36    22    41 1   
    37    23    24 ar  
    38    23    42 1   
    39    24    25 1   
    40    24    26 ar  
    41    26    27 ar  
    42    26    43 1   
    43    27    21 ar  
    44    27    44 1   
    45    28     8 1   
    46    29    30 ar  
    47    29    45 1   
    48    30     4 ar  
    49    30    46 1   
@<TRIPOS>SUBSTRUCTURE
     1 LIG         1 TEMP              0 ****  ****    0 ROOT
