5sa23_out
 OpenBabel09252604163D

 46 49  0  0  0  0  0  0  0  0999 V2000
    5.7960   14.0190   31.1090 O   0  0  0  0  0  0  0  0  0  0  0  0
    6.1800   14.2460   32.2460 C   0  0  0  0  0  0  0  0  0  0  0  0
    5.3530   14.2380   33.3130 O   0  5  0  0  0  0  0  0  0  0  0  0
    7.5900   14.5870   32.5670 C   0  0  0  0  0  0  0  0  0  0  0  0
    7.9820   14.5880   33.9110 C   0  0  0  0  0  0  0  0  0  0  0  0
    9.2950   14.9260   34.2660 C   0  0  0  0  0  0  0  0  0  0  0  0
   10.2260   15.2800   33.2780 C   0  0  0  0  0  0  0  0  0  0  0  0
   11.5590   15.6270   33.6520 N   0  0  0  0  0  0  0  0  0  0  0  0
   12.4570   14.8610   34.3520 C   0  0  0  0  0  0  0  0  0  0  0  0
   13.6070   15.6070   34.5090 C   0  0  0  0  0  0  0  0  0  0  0  0
   14.8620   15.1640   35.1980 C   0  0  0  0  0  0  0  0  0  0  0  0
   14.6900   14.8930   36.6280 N   0  0  0  0  0  0  0  0  0  0  0  0
   14.9550   15.9090   37.5530 C   0  0  0  0  0  0  0  0  0  0  0  0
   16.1660   15.8770   38.2640 C   0  0  0  0  0  0  0  0  0  0  0  0
   16.5000   16.8780   39.1830 C   0  0  0  0  0  0  0  0  0  0  0  0
   15.6370   17.9490   39.3800 C   0  0  0  0  0  0  0  0  0  0  0  0
   14.4540   18.0060   38.6540 C   0  0  0  0  0  0  0  0  0  0  0  0
   13.6290   19.0470   38.8280 F   0  0  0  0  0  0  0  0  0  0  0  0
   14.1120   17.0070   37.7440 C   0  0  0  0  0  0  0  0  0  0  0  0
   13.3080   16.8620   33.8940 C   0  0  0  0  0  0  0  0  0  0  0  0
   14.1310   18.0810   33.8260 C   0  0  0  0  0  0  0  0  0  0  0  0
   14.8300   18.4210   32.6570 C   0  0  0  0  0  0  0  0  0  0  0  0
   15.6040   19.5800   32.5800 C   0  0  0  0  0  0  0  0  0  0  0  0
   15.7130   20.3970   33.6940 C   0  0  0  0  0  0  0  0  0  0  0  0
   16.4680   21.5010   33.6280 F   0  0  0  0  0  0  0  0  0  0  0  0
   15.0580   20.0740   34.8760 C   0  0  0  0  0  0  0  0  0  0  0  0
   14.2670   18.9220   34.9430 C   0  0  0  0  0  0  0  0  0  0  0  0
   12.0870   16.8330   33.3350 N   0  0  0  0  0  0  0  0  0  0  0  0
    9.8250   15.2910   31.9320 C   0  0  0  0  0  0  0  0  0  0  0  0
    8.5110   14.9520   31.5800 C   0  0  0  0  0  0  0  0  0  0  0  0
    7.2553   14.3220   34.6928 H   0  0  0  0  0  0  0  0  0  0  0  0
    9.5968   14.9137   35.3237 H   0  0  0  0  0  0  0  0  0  0  0  0
   12.2903   13.8382   34.7209 H   0  0  0  0  0  0  0  0  0  0  0  0
   15.2180   14.2439   34.7114 H   0  0  0  0  0  0  0  0  0  0  0  0
   15.5817   15.9916   35.1140 H   0  0  0  0  0  0  0  0  0  0  0  0
   14.3910   14.0060   36.9340 H   0  0  0  0  0  0  0  0  0  0  0  0
   16.8673   15.0467   38.0946 H   0  0  0  0  0  0  0  0  0  0  0  0
   17.4422   16.8172   39.7473 H   0  0  0  0  0  0  0  0  0  0  0  0
   15.8872   18.7411   40.1011 H   0  0  0  0  0  0  0  0  0  0  0  0
   13.1744   17.0833   37.1738 H   0  0  0  0  0  0  0  0  0  0  0  0
   14.7663   17.7585   31.7812 H   0  0  0  0  0  0  0  0  0  0  0  0
   16.1217   19.8419   31.6454 H   0  0  0  0  0  0  0  0  0  0  0  0
   15.1612   20.7232   35.7580 H   0  0  0  0  0  0  0  0  0  0  0  0
   13.7465   18.6723   35.8794 H   0  0  0  0  0  0  0  0  0  0  0  0
   10.5465   15.5674   31.1490 H   0  0  0  0  0  0  0  0  0  0  0  0
    8.2035   14.9732   30.5241 H   0  0  0  0  0  0  0  0  0  0  0  0
  1  2  2  0  0  0  0
  2  3  1  0  0  0  0
  2  4  1  0  0  0  0
  4  5  2  0  0  0  0
  5  6  1  0  0  0  0
  5 31  1  0  0  0  0
  6  7  2  0  0  0  0
  6 32  1  0  0  0  0
  7  8  1  0  0  0  0
  7 29  1  0  0  0  0
  8  9  1  0  0  0  0
  9 10  2  0  0  0  0
  9 33  1  0  0  0  0
 10 11  1  0  0  0  0
 10 20  1  0  0  0  0
 11 12  1  0  0  0  0
 11 34  1  0  0  0  0
 11 35  1  0  0  0  0
 12 13  1  0  0  0  0
 12 36  1  0  0  0  0
 13 14  2  0  0  0  0
 14 15  1  0  0  0  0
 14 37  1  0  0  0  0
 15 16  2  0  0  0  0
 15 38  1  0  0  0  0
 16 17  1  0  0  0  0
 16 39  1  0  0  0  0
 17 18  1  0  0  0  0
 17 19  2  0  0  0  0
 19 13  1  0  0  0  0
 19 40  1  0  0  0  0
 20 21  1  0  0  0  0
 20 28  2  0  0  0  0
 21 22  2  0  0  0  0
 22 23  1  0  0  0  0
 22 41  1  0  0  0  0
 23 24  2  0  0  0  0
 23 42  1  0  0  0  0
 24 25  1  0  0  0  0
 24 26  1  0  0  0  0
 26 27  2  0  0  0  0
 26 43  1  0  0  0  0
 27 21  1  0  0  0  0
 27 44  1  0  0  0  0
 28  8  1  0  0  0  0
 29 30  2  0  0  0  0
 29 45  1  0  0  0  0
 30  4  1  0  0  0  0
 30 46  1  0  0  0  0
M  CHG  1   3  -1
M  END
>  <meeko>
{"is_sidechain": [false], "free_energy": -7.988, "intermolecular_energy": -10.791, "internal_energy": -1.323}

>  <PREPARED_BY>
siam chowdhury
Computational and Medicinal Chemistry
[Dr. Alam's Research Team] www.alamresearch.org
Arkansas State University

$$$$
