@<TRIPOS>MOLECULE
5sa23_out
 46 49 0 0 0
SMALL
GASTEIGER

@<TRIPOS>ATOM
      1 O           5.7960   14.0190   31.1090 O.co2   1  UNL1       -0.5446
      2 C           6.1800   14.2460   32.2460 C.2     1  UNL1        0.0717
      3 O           5.3530   14.2380   33.3130 O.co2   1  UNL1       -0.5446
      4 C           7.5900   14.5870   32.5670 C.ar    1  UNL1       -0.0026
      5 C           7.9820   14.5880   33.9110 C.ar    1  UNL1       -0.0509
      6 C           9.2950   14.9260   34.2660 C.ar    1  UNL1       -0.0357
      7 C          10.2260   15.2800   33.2780 C.ar    1  UNL1        0.0654
      8 N          11.5590   15.6270   33.6520 N.ar    1  UNL1       -0.2390
      9 C          12.4570   14.8610   34.3520 C.ar    1  UNL1        0.0365
     10 C          13.6070   15.6070   34.5090 C.ar    1  UNL1        0.0153
     11 C          14.8620   15.1640   35.1980 C.3     1  UNL1        0.0379
     12 N          14.6900   14.8930   36.6280 N.pl3   1  UNL1       -0.3395
     13 C          14.9550   15.9090   37.5530 C.ar    1  UNL1        0.0301
     14 C          16.1660   15.8770   38.2640 C.ar    1  UNL1       -0.0407
     15 C          16.5000   16.8780   39.1830 C.ar    1  UNL1       -0.0573
     16 C          15.6370   17.9490   39.3800 C.ar    1  UNL1       -0.0263
     17 C          14.4540   18.0060   38.6540 C.ar    1  UNL1        0.1251
     18 F          13.6290   19.0470   38.8280 F       1  UNL1       -0.2054
     19 C          14.1120   17.0070   37.7440 C.ar    1  UNL1       -0.0056
     20 C          13.3080   16.8620   33.8940 C.ar    1  UNL1        0.0978
     21 C          14.1310   18.0810   33.8260 C.ar    1  UNL1        0.0026
     22 C          14.8300   18.4210   32.6570 C.ar    1  UNL1       -0.0498
     23 C          15.6040   19.5800   32.5800 C.ar    1  UNL1       -0.0258
     24 C          15.7130   20.3970   33.6940 C.ar    1  UNL1        0.1234
     25 F          16.4680   21.5010   33.6280 F       1  UNL1       -0.2055
     26 C          15.0580   20.0740   34.8760 C.ar    1  UNL1       -0.0258
     27 C          14.2670   18.9220   34.9430 C.ar    1  UNL1       -0.0498
     28 N          12.0870   16.8330   33.3350 N.ar    1  UNL1       -0.1661
     29 C           9.8250   15.2910   31.9320 C.ar    1  UNL1       -0.0357
     30 C           8.5110   14.9520   31.5800 C.ar    1  UNL1       -0.0509
     31 H           7.2553   14.3220   34.6928 H       1  UNL1        0.0625
     32 H           9.5968   14.9137   35.3237 H       1  UNL1        0.0639
     33 H          12.2903   13.8382   34.7209 H       1  UNL1        0.0834
     34 H          15.2180   14.2439   34.7114 H       1  UNL1        0.0512
     35 H          15.5817   15.9916   35.1140 H       1  UNL1        0.0512
     36 H          14.3910   14.0060   36.9340 H       1  UNL1        0.1464
     37 H          16.8673   15.0467   38.0946 H       1  UNL1        0.0636
     38 H          17.4422   16.8172   39.7473 H       1  UNL1        0.0619
     39 H          15.8872   18.7411   40.1011 H       1  UNL1        0.0646
     40 H          13.1744   17.0833   37.1738 H       1  UNL1        0.0665
     41 H          14.7663   17.7585   31.7812 H       1  UNL1        0.0625
     42 H          16.1217   19.8419   31.6454 H       1  UNL1        0.0646
     43 H          15.1612   20.7232   35.7580 H       1  UNL1        0.0646
     44 H          13.7465   18.6723   35.8794 H       1  UNL1        0.0625
     45 H          10.5465   15.5674   31.1490 H       1  UNL1        0.0639
     46 H           8.2035   14.9732   30.5241 H       1  UNL1        0.0625
@<TRIPOS>UNITY_ATOM_ATTR
3 1
charge -1
@<TRIPOS>BOND
     1     1     2   ar
     2     2     3   ar
     3     2     4    1
     4     4     5   ar
     5     5     6   ar
     6     6     7   ar
     7     7     8    1
     8     8     9   ar
     9     9    10   ar
    10    10    11    1
    11    11    12    1
    12    12    13    1
    13    13    14   ar
    14    14    15   ar
    15    15    16   ar
    16    16    17   ar
    17    17    18    1
    18    17    19   ar
    19    10    20   ar
    20    20    21    1
    21    21    22   ar
    22    22    23   ar
    23    23    24   ar
    24    24    25    1
    25    24    26   ar
    26    26    27   ar
    27    20    28   ar
    28     7    29   ar
    29    29    30   ar
    30    30     4   ar
    31    28     8   ar
    32    19    13   ar
    33    27    21   ar
    34     5    31    1
    35     6    32    1
    36     9    33    1
    37    11    34    1
    38    11    35    1
    39    12    36    1
    40    14    37    1
    41    15    38    1
    42    16    39    1
    43    19    40    1
    44    22    41    1
    45    23    42    1
    46    26    43    1
    47    27    44    1
    48    29    45    1
    49    30    46    1
