@<TRIPOS>MOLECULE
17sa23_out
 46 49 0 0 0
SMALL
GASTEIGER

@<TRIPOS>ATOM
      1 O           5.8350   13.7680   30.6280 O.co2   1  UNL1       -0.5446
      2 C           6.1240   14.0990   31.7650 C.2     1  UNL1        0.0717
      3 O           5.2380   14.1150   32.7830 O.co2   1  UNL1       -0.5446
      4 C           7.4820   14.5520   32.1540 C.ar    1  UNL1       -0.0026
      5 C           7.8350   14.5350   33.5090 C.ar    1  UNL1       -0.0509
      6 C           9.0950   14.9910   33.9170 C.ar    1  UNL1       -0.0357
      7 C          10.0040   15.4850   32.9700 C.ar    1  UNL1        0.0654
      8 N          11.2660   15.9970   33.3910 N.ar    1  UNL1       -0.2390
      9 C          12.0360   16.9220   32.7330 C.ar    1  UNL1        0.0365
     10 C          13.1360   17.1800   33.5200 C.ar    1  UNL1        0.0153
     11 C          14.2020   18.1820   33.2290 C.3     1  UNL1        0.0379
     12 N          14.0070   19.4600   33.9080 N.pl3   1  UNL1       -0.3395
     13 C          14.5980   19.6730   35.1550 C.ar    1  UNL1        0.0303
     14 C          15.8790   19.1430   35.3890 C.ar    1  UNL1       -0.0380
     15 C          16.5000   19.2640   36.6340 C.ar    1  UNL1       -0.0218
     16 C          15.8290   19.8910   37.6730 C.ar    1  UNL1        0.1585
     17 F          16.4210   20.0070   38.8680 F       1  UNL1       -0.2025
     18 C          14.5460   20.3790   37.4730 C.ar    1  UNL1        0.1601
     19 F          13.8820   20.9620   38.4850 F       1  UNL1       -0.2024
     20 C          13.9260   20.2620   36.2320 C.ar    1  UNL1       -0.0027
     21 C          13.0000   16.2980   34.6330 C.ar    1  UNL1        0.0978
     22 C          13.9240   16.1060   35.7620 C.ar    1  UNL1        0.0026
     23 C          13.6730   16.6940   37.0140 C.ar    1  UNL1       -0.0498
     24 C          14.5330   16.4830   38.0940 C.ar    1  UNL1       -0.0258
     25 C          15.6660   15.7020   37.9230 C.ar    1  UNL1        0.1234
     26 F          16.4950   15.5050   38.9570 F       1  UNL1       -0.2055
     27 C          15.9540   15.1290   36.6910 C.ar    1  UNL1       -0.0258
     28 C          15.0860   15.3310   35.6120 C.ar    1  UNL1       -0.0498
     29 N          11.8400   15.6210   34.5590 N.ar    1  UNL1       -0.1661
     30 C           9.6410   15.4990   31.6120 C.ar    1  UNL1       -0.0357
     31 C           8.3830   15.0450   31.2080 C.ar    1  UNL1       -0.0509
     32 H           7.1195   14.1618   34.2565 H       1  UNL1        0.0625
     33 H           9.3719   14.9616   34.9812 H       1  UNL1        0.0639
     34 H          11.8151   17.3749   31.7552 H       1  UNL1        0.0834
     35 H          15.1683   17.7635   33.5472 H       1  UNL1        0.0512
     36 H          14.1676   18.3835   32.1482 H       1  UNL1        0.0512
     37 H          13.4610   20.1660   33.4900 H       1  UNL1        0.1464
     38 H          16.4032   18.6220   34.5742 H       1  UNL1        0.0637
     39 H          17.5133   18.8651   36.7892 H       1  UNL1        0.0648
     40 H          12.9001   20.6354   36.0970 H       1  UNL1        0.0666
     41 H          12.7853   17.3303   37.1451 H       1  UNL1        0.0625
     42 H          14.3132   16.9331   39.0733 H       1  UNL1        0.0646
     43 H          16.8605   14.5190   36.5639 H       1  UNL1        0.0646
     44 H          15.3160   14.8782   34.6363 H       1  UNL1        0.0625
     45 H          10.3536   15.8706   30.8609 H       1  UNL1        0.0639
     46 H           8.1024   15.0759   30.1449 H       1  UNL1        0.0625
@<TRIPOS>UNITY_ATOM_ATTR
3 1
charge -1
@<TRIPOS>BOND
     1     1     2   ar
     2     2     3   ar
     3     2     4    1
     4     4     5   ar
     5     5     6   ar
     6     6     7   ar
     7     7     8    1
     8     8     9   ar
     9     9    10   ar
    10    10    11    1
    11    11    12    1
    12    12    13    1
    13    13    14   ar
    14    14    15   ar
    15    15    16   ar
    16    16    17    1
    17    16    18   ar
    18    18    19    1
    19    18    20   ar
    20    10    21   ar
    21    21    22    1
    22    22    23   ar
    23    23    24   ar
    24    24    25   ar
    25    25    26    1
    26    25    27   ar
    27    27    28   ar
    28    21    29   ar
    29     7    30   ar
    30    30    31   ar
    31    31     4   ar
    32    29     8   ar
    33    20    13   ar
    34    28    22   ar
    35     5    32    1
    36     6    33    1
    37     9    34    1
    38    11    35    1
    39    11    36    1
    40    12    37    1
    41    14    38    1
    42    15    39    1
    43    20    40    1
    44    23    41    1
    45    24    42    1
    46    27    43    1
    47    28    44    1
    48    30    45    1
    49    31    46    1
