17sa23_out
 OpenBabel09252604243D

 46 49  0  0  0  0  0  0  0  0999 V2000
    5.8350   13.7680   30.6280 O   0  0  0  0  0  0  0  0  0  0  0  0
    6.1240   14.0990   31.7650 C   0  0  0  0  0  0  0  0  0  0  0  0
    5.2380   14.1150   32.7830 O   0  5  0  0  0  0  0  0  0  0  0  0
    7.4820   14.5520   32.1540 C   0  0  0  0  0  0  0  0  0  0  0  0
    7.8350   14.5350   33.5090 C   0  0  0  0  0  0  0  0  0  0  0  0
    9.0950   14.9910   33.9170 C   0  0  0  0  0  0  0  0  0  0  0  0
   10.0040   15.4850   32.9700 C   0  0  0  0  0  0  0  0  0  0  0  0
   11.2660   15.9970   33.3910 N   0  0  0  0  0  0  0  0  0  0  0  0
   12.0360   16.9220   32.7330 C   0  0  0  0  0  0  0  0  0  0  0  0
   13.1360   17.1800   33.5200 C   0  0  0  0  0  0  0  0  0  0  0  0
   14.2020   18.1820   33.2290 C   0  0  0  0  0  0  0  0  0  0  0  0
   14.0070   19.4600   33.9080 N   0  0  0  0  0  0  0  0  0  0  0  0
   14.5980   19.6730   35.1550 C   0  0  0  0  0  0  0  0  0  0  0  0
   15.8790   19.1430   35.3890 C   0  0  0  0  0  0  0  0  0  0  0  0
   16.5000   19.2640   36.6340 C   0  0  0  0  0  0  0  0  0  0  0  0
   15.8290   19.8910   37.6730 C   0  0  0  0  0  0  0  0  0  0  0  0
   16.4210   20.0070   38.8680 F   0  0  0  0  0  0  0  0  0  0  0  0
   14.5460   20.3790   37.4730 C   0  0  0  0  0  0  0  0  0  0  0  0
   13.8820   20.9620   38.4850 F   0  0  0  0  0  0  0  0  0  0  0  0
   13.9260   20.2620   36.2320 C   0  0  0  0  0  0  0  0  0  0  0  0
   13.0000   16.2980   34.6330 C   0  0  0  0  0  0  0  0  0  0  0  0
   13.9240   16.1060   35.7620 C   0  0  0  0  0  0  0  0  0  0  0  0
   13.6730   16.6940   37.0140 C   0  0  0  0  0  0  0  0  0  0  0  0
   14.5330   16.4830   38.0940 C   0  0  0  0  0  0  0  0  0  0  0  0
   15.6660   15.7020   37.9230 C   0  0  0  0  0  0  0  0  0  0  0  0
   16.4950   15.5050   38.9570 F   0  0  0  0  0  0  0  0  0  0  0  0
   15.9540   15.1290   36.6910 C   0  0  0  0  0  0  0  0  0  0  0  0
   15.0860   15.3310   35.6120 C   0  0  0  0  0  0  0  0  0  0  0  0
   11.8400   15.6210   34.5590 N   0  0  0  0  0  0  0  0  0  0  0  0
    9.6410   15.4990   31.6120 C   0  0  0  0  0  0  0  0  0  0  0  0
    8.3830   15.0450   31.2080 C   0  0  0  0  0  0  0  0  0  0  0  0
    7.1195   14.1618   34.2565 H   0  0  0  0  0  0  0  0  0  0  0  0
    9.3719   14.9616   34.9812 H   0  0  0  0  0  0  0  0  0  0  0  0
   11.8151   17.3749   31.7552 H   0  0  0  0  0  0  0  0  0  0  0  0
   15.1683   17.7635   33.5472 H   0  0  0  0  0  0  0  0  0  0  0  0
   14.1676   18.3835   32.1482 H   0  0  0  0  0  0  0  0  0  0  0  0
   13.4610   20.1660   33.4900 H   0  0  0  0  0  0  0  0  0  0  0  0
   16.4032   18.6220   34.5742 H   0  0  0  0  0  0  0  0  0  0  0  0
   17.5133   18.8651   36.7892 H   0  0  0  0  0  0  0  0  0  0  0  0
   12.9001   20.6354   36.0970 H   0  0  0  0  0  0  0  0  0  0  0  0
   12.7853   17.3303   37.1451 H   0  0  0  0  0  0  0  0  0  0  0  0
   14.3132   16.9331   39.0733 H   0  0  0  0  0  0  0  0  0  0  0  0
   16.8605   14.5190   36.5639 H   0  0  0  0  0  0  0  0  0  0  0  0
   15.3160   14.8782   34.6363 H   0  0  0  0  0  0  0  0  0  0  0  0
   10.3536   15.8706   30.8609 H   0  0  0  0  0  0  0  0  0  0  0  0
    8.1024   15.0759   30.1449 H   0  0  0  0  0  0  0  0  0  0  0  0
  1  2  2  0  0  0  0
  2  3  1  0  0  0  0
  2  4  1  0  0  0  0
  4  5  2  0  0  0  0
  5  6  1  0  0  0  0
  5 32  1  0  0  0  0
  6  7  2  0  0  0  0
  6 33  1  0  0  0  0
  7  8  1  0  0  0  0
  7 30  1  0  0  0  0
  8  9  1  0  0  0  0
  9 10  2  0  0  0  0
  9 34  1  0  0  0  0
 10 11  1  0  0  0  0
 10 21  1  0  0  0  0
 11 12  1  0  0  0  0
 11 35  1  0  0  0  0
 11 36  1  0  0  0  0
 12 13  1  0  0  0  0
 12 37  1  0  0  0  0
 13 14  2  0  0  0  0
 14 15  1  0  0  0  0
 14 38  1  0  0  0  0
 15 16  2  0  0  0  0
 15 39  1  0  0  0  0
 16 17  1  0  0  0  0
 16 18  1  0  0  0  0
 18 19  1  0  0  0  0
 18 20  2  0  0  0  0
 20 13  1  0  0  0  0
 20 40  1  0  0  0  0
 21 22  1  0  0  0  0
 21 29  2  0  0  0  0
 22 23  2  0  0  0  0
 23 24  1  0  0  0  0
 23 41  1  0  0  0  0
 24 25  2  0  0  0  0
 24 42  1  0  0  0  0
 25 26  1  0  0  0  0
 25 27  1  0  0  0  0
 27 28  2  0  0  0  0
 27 43  1  0  0  0  0
 28 22  1  0  0  0  0
 28 44  1  0  0  0  0
 29  8  1  0  0  0  0
 30 31  2  0  0  0  0
 30 45  1  0  0  0  0
 31  4  1  0  0  0  0
 31 46  1  0  0  0  0
M  CHG  1   3  -1
M  END
>  <meeko>
{"is_sidechain": [false], "free_energy": -7.166, "intermolecular_energy": -9.679, "internal_energy": -2.228}

>  <PREPARED_BY>
siam chowdhury
Computational and Medicinal Chemistry
[Dr. Alam's Research Team] www.alamresearch.org
Arkansas State University

$$$$
