@<TRIPOS>MOLECULE
20sa23_out
 46 49 0 0 0
SMALL
GASTEIGER

@<TRIPOS>ATOM
      1 O          15.3040   18.1600   33.1110 O.co2   1  UNL1       -0.5446
      2 C          14.5780   19.1310   33.2010 C.2     1  UNL1        0.0717
      3 O          14.7940   20.1430   34.0690 O.co2   1  UNL1       -0.5446
      4 C          13.3530   19.3020   32.3820 C.ar    1  UNL1       -0.0026
      5 C          13.0560   20.5700   31.8660 C.ar    1  UNL1       -0.0509
      6 C          11.8900   20.7740   31.1180 C.ar    1  UNL1       -0.0357
      7 C          11.0040   19.7100   30.8960 C.ar    1  UNL1        0.0654
      8 N           9.7910   19.9230   30.1780 N.ar    1  UNL1       -0.2390
      9 C           8.5250   19.6230   30.6110 C.ar    1  UNL1        0.0365
     10 C           7.6450   20.0680   29.6530 C.ar    1  UNL1        0.0153
     11 C           6.1590   20.0460   29.7610 C.3     1  UNL1        0.0379
     12 N           5.6110   18.8060   30.3120 N.pl3   1  UNL1       -0.3395
     13 C           4.9200   17.9540   29.4430 C.ar    1  UNL1        0.0301
     14 C           3.7730   17.2950   29.9070 C.ar    1  UNL1       -0.0224
     15 C           3.0740   16.4090   29.0820 C.ar    1  UNL1        0.0441
     16 CL          1.6430   15.6530   29.6650 Cl      1  UNL1       -0.0834
     17 C           3.5190   16.1350   27.7940 C.ar    1  UNL1       -0.0249
     18 C           4.6880   16.7380   27.3470 C.ar    1  UNL1        0.0441
     19 CL          5.2810   16.3920   25.7690 Cl      1  UNL1       -0.0834
     20 C           5.3900   17.6240   28.1650 C.ar    1  UNL1       -0.0224
     21 C           8.4710   20.5630   28.6010 C.ar    1  UNL1        0.0978
     22 C           8.0550   21.1050   27.2980 C.ar    1  UNL1        0.0026
     23 C           7.4090   20.2920   26.3490 C.ar    1  UNL1       -0.0498
     24 C           6.9860   20.8100   25.1230 C.ar    1  UNL1       -0.0258
     25 C           7.2270   22.1430   24.8270 C.ar    1  UNL1        0.1234
     26 F           6.8300   22.6400   23.6490 F       1  UNL1       -0.2055
     27 C           7.8850   22.9650   25.7360 C.ar    1  UNL1       -0.0258
     28 C           8.2970   22.4470   26.9690 C.ar    1  UNL1       -0.0498
     29 N           9.7680   20.5040   28.9540 N.ar    1  UNL1       -0.1661
     30 C          11.3080   18.4420   31.4190 C.ar    1  UNL1       -0.0357
     31 C          12.4700   18.2410   32.1660 C.ar    1  UNL1       -0.0509
     32 H          13.7423   21.4098   32.0494 H       1  UNL1        0.0625
     33 H          11.6690   21.7691   30.7045 H       1  UNL1        0.0639
     34 H           8.2617   19.1187   31.5524 H       1  UNL1        0.0834
     35 H           5.8490   20.8777   30.4107 H       1  UNL1        0.0512
     36 H           5.7686   20.1336   28.7364 H       1  UNL1        0.0512
     37 H           5.7250   18.5780   31.2630 H       1  UNL1        0.1464
     38 H           3.4188   17.4772   30.9324 H       1  UNL1        0.0651
     39 H           2.9556   15.4529   27.1403 H       1  UNL1        0.0647
     40 H           6.3271   18.0704   27.8008 H       1  UNL1        0.0651
     41 H           7.2340   19.2301   26.5765 H       1  UNL1        0.0625
     42 H           6.4661   20.1661   24.3984 H       1  UNL1        0.0646
     43 H           8.0808   24.0183   25.4866 H       1  UNL1        0.0646
     44 H           8.8158   23.0987   27.6874 H       1  UNL1        0.0625
     45 H          10.6240   17.5997   31.2382 H       1  UNL1        0.0639
     46 H          12.6903   17.2478   32.5844 H       1  UNL1        0.0625
@<TRIPOS>UNITY_ATOM_ATTR
3 1
charge -1
@<TRIPOS>BOND
     1     1     2   ar
     2     2     3   ar
     3     2     4    1
     4     4     5   ar
     5     5     6   ar
     6     6     7   ar
     7     7     8    1
     8     8     9   ar
     9     9    10   ar
    10    10    11    1
    11    11    12    1
    12    12    13    1
    13    13    14   ar
    14    14    15   ar
    15    15    16    1
    16    15    17   ar
    17    17    18   ar
    18    18    19    1
    19    18    20   ar
    20    10    21   ar
    21    21    22    1
    22    22    23   ar
    23    23    24   ar
    24    24    25   ar
    25    25    26    1
    26    25    27   ar
    27    27    28   ar
    28    21    29   ar
    29     7    30   ar
    30    30    31   ar
    31    31     4   ar
    32    29     8   ar
    33    20    13   ar
    34    28    22   ar
    35     5    32    1
    36     6    33    1
    37     9    34    1
    38    11    35    1
    39    11    36    1
    40    12    37    1
    41    14    38    1
    42    17    39    1
    43    20    40    1
    44    23    41    1
    45    24    42    1
    46    27    43    1
    47    28    44    1
    48    30    45    1
    49    31    46    1
