20sa23_out
 OpenBabel09272611133D

 46 49  0  0  0  0  0  0  0  0999 V2000
   15.3040   18.1600   33.1110 O   0  0  0  0  0  0  0  0  0  0  0  0
   14.5780   19.1310   33.2010 C   0  0  0  0  0  0  0  0  0  0  0  0
   14.7940   20.1430   34.0690 O   0  5  0  0  0  0  0  0  0  0  0  0
   13.3530   19.3020   32.3820 C   0  0  0  0  0  0  0  0  0  0  0  0
   13.0560   20.5700   31.8660 C   0  0  0  0  0  0  0  0  0  0  0  0
   11.8900   20.7740   31.1180 C   0  0  0  0  0  0  0  0  0  0  0  0
   11.0040   19.7100   30.8960 C   0  0  0  0  0  0  0  0  0  0  0  0
    9.7910   19.9230   30.1780 N   0  0  0  0  0  0  0  0  0  0  0  0
    8.5250   19.6230   30.6110 C   0  0  0  0  0  0  0  0  0  0  0  0
    7.6450   20.0680   29.6530 C   0  0  0  0  0  0  0  0  0  0  0  0
    6.1590   20.0460   29.7610 C   0  0  0  0  0  0  0  0  0  0  0  0
    5.6110   18.8060   30.3120 N   0  0  0  0  0  0  0  0  0  0  0  0
    4.9200   17.9540   29.4430 C   0  0  0  0  0  0  0  0  0  0  0  0
    3.7730   17.2950   29.9070 C   0  0  0  0  0  0  0  0  0  0  0  0
    3.0740   16.4090   29.0820 C   0  0  0  0  0  0  0  0  0  0  0  0
    1.6430   15.6530   29.6650 Cl  0  0  0  0  0  0  0  0  0  0  0  0
    3.5190   16.1350   27.7940 C   0  0  0  0  0  0  0  0  0  0  0  0
    4.6880   16.7380   27.3470 C   0  0  0  0  0  0  0  0  0  0  0  0
    5.2810   16.3920   25.7690 Cl  0  0  0  0  0  0  0  0  0  0  0  0
    5.3900   17.6240   28.1650 C   0  0  0  0  0  0  0  0  0  0  0  0
    8.4710   20.5630   28.6010 C   0  0  0  0  0  0  0  0  0  0  0  0
    8.0550   21.1050   27.2980 C   0  0  0  0  0  0  0  0  0  0  0  0
    7.4090   20.2920   26.3490 C   0  0  0  0  0  0  0  0  0  0  0  0
    6.9860   20.8100   25.1230 C   0  0  0  0  0  0  0  0  0  0  0  0
    7.2270   22.1430   24.8270 C   0  0  0  0  0  0  0  0  0  0  0  0
    6.8300   22.6400   23.6490 F   0  0  0  0  0  0  0  0  0  0  0  0
    7.8850   22.9650   25.7360 C   0  0  0  0  0  0  0  0  0  0  0  0
    8.2970   22.4470   26.9690 C   0  0  0  0  0  0  0  0  0  0  0  0
    9.7680   20.5040   28.9540 N   0  0  0  0  0  0  0  0  0  0  0  0
   11.3080   18.4420   31.4190 C   0  0  0  0  0  0  0  0  0  0  0  0
   12.4700   18.2410   32.1660 C   0  0  0  0  0  0  0  0  0  0  0  0
   13.7423   21.4098   32.0494 H   0  0  0  0  0  0  0  0  0  0  0  0
   11.6690   21.7691   30.7045 H   0  0  0  0  0  0  0  0  0  0  0  0
    8.2617   19.1187   31.5524 H   0  0  0  0  0  0  0  0  0  0  0  0
    5.8490   20.8777   30.4107 H   0  0  0  0  0  0  0  0  0  0  0  0
    5.7686   20.1336   28.7364 H   0  0  0  0  0  0  0  0  0  0  0  0
    5.7250   18.5780   31.2630 H   0  0  0  0  0  0  0  0  0  0  0  0
    3.4188   17.4772   30.9324 H   0  0  0  0  0  0  0  0  0  0  0  0
    2.9556   15.4529   27.1403 H   0  0  0  0  0  0  0  0  0  0  0  0
    6.3271   18.0704   27.8008 H   0  0  0  0  0  0  0  0  0  0  0  0
    7.2340   19.2301   26.5765 H   0  0  0  0  0  0  0  0  0  0  0  0
    6.4661   20.1661   24.3984 H   0  0  0  0  0  0  0  0  0  0  0  0
    8.0808   24.0183   25.4866 H   0  0  0  0  0  0  0  0  0  0  0  0
    8.8158   23.0987   27.6874 H   0  0  0  0  0  0  0  0  0  0  0  0
   10.6240   17.5997   31.2382 H   0  0  0  0  0  0  0  0  0  0  0  0
   12.6903   17.2478   32.5844 H   0  0  0  0  0  0  0  0  0  0  0  0
  1  2  2  0  0  0  0
  2  3  1  0  0  0  0
  2  4  1  0  0  0  0
  4  5  2  0  0  0  0
  5  6  1  0  0  0  0
  5 32  1  0  0  0  0
  6  7  2  0  0  0  0
  6 33  1  0  0  0  0
  7  8  1  0  0  0  0
  7 30  1  0  0  0  0
  8  9  1  0  0  0  0
  9 10  2  0  0  0  0
  9 34  1  0  0  0  0
 10 11  1  0  0  0  0
 10 21  1  0  0  0  0
 11 12  1  0  0  0  0
 11 35  1  0  0  0  0
 11 36  1  0  0  0  0
 12 13  1  0  0  0  0
 12 37  1  0  0  0  0
 13 14  2  0  0  0  0
 14 15  1  0  0  0  0
 14 38  1  0  0  0  0
 15 16  1  0  0  0  0
 15 17  2  0  0  0  0
 17 18  1  0  0  0  0
 17 39  1  0  0  0  0
 18 19  1  0  0  0  0
 18 20  2  0  0  0  0
 20 13  1  0  0  0  0
 20 40  1  0  0  0  0
 21 22  1  0  0  0  0
 21 29  2  0  0  0  0
 22 23  2  0  0  0  0
 23 24  1  0  0  0  0
 23 41  1  0  0  0  0
 24 25  2  0  0  0  0
 24 42  1  0  0  0  0
 25 26  1  0  0  0  0
 25 27  1  0  0  0  0
 27 28  2  0  0  0  0
 27 43  1  0  0  0  0
 28 22  1  0  0  0  0
 28 44  1  0  0  0  0
 29  8  1  0  0  0  0
 30 31  2  0  0  0  0
 30 45  1  0  0  0  0
 31  4  1  0  0  0  0
 31 46  1  0  0  0  0
M  CHG  1   3  -1
M  END
>  <meeko>
{"is_sidechain": [false], "free_energy": -7.297, "intermolecular_energy": -9.857, "internal_energy": -1.216}

>  <PREPARED_BY>
siam chowdhury
Computational and Medicinal Chemistry
[Dr. Alam's Research Team] www.alamresearch.org
Arkansas State University

$$$$
