17sa23_out
     RDKit          3D

 46 49  0  0  0  0  0  0  0  0999 V2000
    5.8350   13.7680   30.6280 O   0  0  0  0  0  0  0  0  0  0  0  0
    6.1240   14.0990   31.7650 C   0  0  0  0  0  0  0  0  0  0  0  0
    5.2380   14.1150   32.7830 O   0  0  0  0  0  0  0  0  0  0  0  0
    7.4820   14.5520   32.1540 C   0  0  0  0  0  0  0  0  0  0  0  0
    7.8350   14.5350   33.5090 C   0  0  0  0  0  0  0  0  0  0  0  0
    9.0950   14.9910   33.9170 C   0  0  0  0  0  0  0  0  0  0  0  0
   10.0040   15.4850   32.9700 C   0  0  0  0  0  0  0  0  0  0  0  0
   11.2660   15.9970   33.3910 N   0  0  0  0  0  0  0  0  0  0  0  0
   12.0360   16.9220   32.7330 C   0  0  0  0  0  0  0  0  0  0  0  0
   13.1360   17.1800   33.5200 C   0  0  0  0  0  0  0  0  0  0  0  0
   14.2020   18.1820   33.2290 C   0  0  0  0  0  0  0  0  0  0  0  0
   14.0070   19.4600   33.9080 N   0  0  0  0  0  0  0  0  0  0  0  0
   14.5980   19.6730   35.1550 C   0  0  0  0  0  0  0  0  0  0  0  0
   15.8790   19.1430   35.3890 C   0  0  0  0  0  0  0  0  0  0  0  0
   16.5000   19.2640   36.6340 C   0  0  0  0  0  0  0  0  0  0  0  0
   15.8290   19.8910   37.6730 C   0  0  0  0  0  0  0  0  0  0  0  0
   16.4210   20.0070   38.8680 F   0  0  0  0  0  0  0  0  0  0  0  0
   14.5460   20.3790   37.4730 C   0  0  0  0  0  0  0  0  0  0  0  0
   13.8820   20.9620   38.4850 F   0  0  0  0  0  0  0  0  0  0  0  0
   13.9260   20.2620   36.2320 C   0  0  0  0  0  0  0  0  0  0  0  0
   13.0000   16.2980   34.6330 C   0  0  0  0  0  0  0  0  0  0  0  0
   13.9240   16.1060   35.7620 C   0  0  0  0  0  0  0  0  0  0  0  0
   13.6730   16.6940   37.0140 C   0  0  0  0  0  0  0  0  0  0  0  0
   14.5330   16.4830   38.0940 C   0  0  0  0  0  0  0  0  0  0  0  0
   15.6660   15.7020   37.9230 C   0  0  0  0  0  0  0  0  0  0  0  0
   16.4950   15.5050   38.9570 F   0  0  0  0  0  0  0  0  0  0  0  0
   15.9540   15.1290   36.6910 C   0  0  0  0  0  0  0  0  0  0  0  0
   15.0860   15.3310   35.6120 C   0  0  0  0  0  0  0  0  0  0  0  0
   11.8400   15.6210   34.5590 N   0  0  0  0  0  0  0  0  0  0  0  0
    9.6410   15.4990   31.6120 C   0  0  0  0  0  0  0  0  0  0  0  0
    8.3830   15.0450   31.2080 C   0  0  0  0  0  0  0  0  0  0  0  0
    7.1195   14.1618   34.2565 H   0  0  0  0  0  0  0  0  0  0  0  0
    9.3719   14.9616   34.9812 H   0  0  0  0  0  0  0  0  0  0  0  0
   11.8151   17.3749   31.7552 H   0  0  0  0  0  0  0  0  0  0  0  0
   15.1683   17.7635   33.5472 H   0  0  0  0  0  0  0  0  0  0  0  0
   14.1676   18.3835   32.1482 H   0  0  0  0  0  0  0  0  0  0  0  0
   13.4610   20.1660   33.4900 H   0  0  0  0  0  0  0  0  0  0  0  0
   16.4032   18.6220   34.5742 H   0  0  0  0  0  0  0  0  0  0  0  0
   17.5133   18.8651   36.7892 H   0  0  0  0  0  0  0  0  0  0  0  0
   12.9001   20.6354   36.0970 H   0  0  0  0  0  0  0  0  0  0  0  0
   12.7853   17.3303   37.1451 H   0  0  0  0  0  0  0  0  0  0  0  0
   14.3132   16.9331   39.0733 H   0  0  0  0  0  0  0  0  0  0  0  0
   16.8605   14.5190   36.5639 H   0  0  0  0  0  0  0  0  0  0  0  0
   15.3160   14.8782   34.6363 H   0  0  0  0  0  0  0  0  0  0  0  0
   10.3536   15.8706   30.8609 H   0  0  0  0  0  0  0  0  0  0  0  0
    8.1024   15.0759   30.1449 H   0  0  0  0  0  0  0  0  0  0  0  0
  1  2  2  0
  2  3  1  0
  2  4  1  0
  4  5  2  0
  5  6  1  0
  6  7  2  0
  7  8  1  0
  8  9  1  0
  9 10  2  0
 10 11  1  0
 11 12  1  0
 12 13  1  0
 13 14  2  0
 14 15  1  0
 15 16  2  0
 16 17  1  0
 16 18  1  0
 18 19  1  0
 18 20  2  0
 10 21  1  0
 21 22  1  0
 22 23  2  0
 23 24  1  0
 24 25  2  0
 25 26  1  0
 25 27  1  0
 27 28  2  0
 21 29  2  0
  7 30  1  0
 30 31  2  0
 31  4  1  0
 29  8  1  0
 20 13  1  0
 28 22  1  0
  5 32  1  0
  6 33  1  0
  9 34  1  0
 11 35  1  0
 11 36  1  0
 12 37  1  0
 14 38  1  0
 15 39  1  0
 20 40  1  0
 23 41  1  0
 24 42  1  0
 27 43  1  0
 28 44  1  0
 30 45  1  0
 31 46  1  0
M  CHG  1   3  -1
M  END
>  <meeko>  (1) 
{"is_sidechain": [false], "free_energy": -7.166, "intermolecular_energy": -9.679, "internal_energy": -2.228}

> <PREPARED_BY>
siam chowdhury
Computational and Medicinal Chemistry
[Dr. Alam's Research Team] www.alamresearch.org
Arkansas State University

$$$$
17sa23_out
     RDKit          3D

 46 49  0  0  0  0  0  0  0  0999 V2000
    5.7690   13.9610   31.3620 O   0  0  0  0  0  0  0  0  0  0  0  0
    6.1820   14.2090   32.4820 C   0  0  0  0  0  0  0  0  0  0  0  0
    5.3970   14.2100   33.5800 O   0  0  0  0  0  0  0  0  0  0  0  0
    7.5940   14.5680   32.7620 C   0  0  0  0  0  0  0  0  0  0  0  0
    8.0420   14.5510   34.0880 C   0  0  0  0  0  0  0  0  0  0  0  0
    9.3590   14.9200   34.3930 C   0  0  0  0  0  0  0  0  0  0  0  0
   10.2290   15.3270   33.3720 C   0  0  0  0  0  0  0  0  0  0  0  0
   11.5530   15.7530   33.6900 N   0  0  0  0  0  0  0  0  0  0  0  0
   12.4800   15.0650   34.4300 C   0  0  0  0  0  0  0  0  0  0  0  0
   13.6400   15.8050   34.4320 C   0  0  0  0  0  0  0  0  0  0  0  0
   14.9340   15.3990   35.0540 C   0  0  0  0  0  0  0  0  0  0  0  0
   14.9640   15.5630   36.5050 N   0  0  0  0  0  0  0  0  0  0  0  0
   15.0280   16.8470   37.0490 C   0  0  0  0  0  0  0  0  0  0  0  0
   16.2930   17.4300   37.2440 C   0  0  0  0  0  0  0  0  0  0  0  0
   16.4310   18.6850   37.8430 C   0  0  0  0  0  0  0  0  0  0  0  0
   15.3020   19.3570   38.2860 C   0  0  0  0  0  0  0  0  0  0  0  0
   15.4310   20.5590   38.8620 F   0  0  0  0  0  0  0  0  0  0  0  0
   14.0500   18.7760   38.1450 C   0  0  0  0  0  0  0  0  0  0  0  0
   12.9580   19.4110   38.5990 F   0  0  0  0  0  0  0  0  0  0  0  0
   13.9100   17.5270   37.5450 C   0  0  0  0  0  0  0  0  0  0  0  0
   13.3130   16.9950   33.7170 C   0  0  0  0  0  0  0  0  0  0  0  0
   14.1630   18.1690   33.4610 C   0  0  0  0  0  0  0  0  0  0  0  0
   14.8840   18.2950   32.2620 C   0  0  0  0  0  0  0  0  0  0  0  0
   15.6640   19.4250   32.0060 C   0  0  0  0  0  0  0  0  0  0  0  0
   15.7470   20.4280   32.9620 C   0  0  0  0  0  0  0  0  0  0  0  0
   16.5000   21.5090   32.7200 F   0  0  0  0  0  0  0  0  0  0  0  0
   15.0660   20.3190   34.1670 C   0  0  0  0  0  0  0  0  0  0  0  0
   14.2760   19.1910   34.4170 C   0  0  0  0  0  0  0  0  0  0  0  0
   12.0570   16.9260   33.2380 N   0  0  0  0  0  0  0  0  0  0  0  0
    9.7700   15.3430   32.0440 C   0  0  0  0  0  0  0  0  0  0  0  0
    8.4560   14.9750   31.7420 C   0  0  0  0  0  0  0  0  0  0  0  0
    7.3576   14.2468   34.8937 H   0  0  0  0  0  0  0  0  0  0  0  0
    9.7105   14.8902   35.4349 H   0  0  0  0  0  0  0  0  0  0  0  0
   12.3246   14.0979   34.9307 H   0  0  0  0  0  0  0  0  0  0  0  0
   15.1145   14.3394   34.8203 H   0  0  0  0  0  0  0  0  0  0  0  0
   15.7111   16.0580   34.6395 H   0  0  0  0  0  0  0  0  0  0  0  0
   14.9400   14.7740   37.0950 H   0  0  0  0  0  0  0  0  0  0  0  0
   17.1924   16.8868   36.9183 H   0  0  0  0  0  0  0  0  0  0  0  0
   17.4272   19.1361   37.9621 H   0  0  0  0  0  0  0  0  0  0  0  0
   12.9124   17.0713   37.4603 H   0  0  0  0  0  0  0  0  0  0  0  0
   14.8335   17.4911   31.5129 H   0  0  0  0  0  0  0  0  0  0  0  0
   16.2080   19.5193   31.0546 H   0  0  0  0  0  0  0  0  0  0  0  0
   15.1469   21.1153   34.9216 H   0  0  0  0  0  0  0  0  0  0  0  0
   13.7380   19.1043   35.3725 H   0  0  0  0  0  0  0  0  0  0  0  0
   10.4506   15.6477   31.2353 H   0  0  0  0  0  0  0  0  0  0  0  0
    8.1012   15.0060   30.7013 H   0  0  0  0  0  0  0  0  0  0  0  0
  1  2  2  0
  2  3  1  0
  2  4  1  0
  4  5  2  0
  5  6  1  0
  6  7  2  0
  7  8  1  0
  8  9  1  0
  9 10  2  0
 10 11  1  0
 11 12  1  0
 12 13  1  0
 13 14  2  0
 14 15  1  0
 15 16  2  0
 16 17  1  0
 16 18  1  0
 18 19  1  0
 18 20  2  0
 10 21  1  0
 21 22  1  0
 22 23  2  0
 23 24  1  0
 24 25  2  0
 25 26  1  0
 25 27  1  0
 27 28  2  0
 21 29  2  0
  7 30  1  0
 30 31  2  0
 31  4  1  0
 29  8  1  0
 20 13  1  0
 28 22  1  0
  5 32  1  0
  6 33  1  0
  9 34  1  0
 11 35  1  0
 11 36  1  0
 12 37  1  0
 14 38  1  0
 15 39  1  0
 20 40  1  0
 23 41  1  0
 24 42  1  0
 27 43  1  0
 28 44  1  0
 30 45  1  0
 31 46  1  0
M  CHG  1   3  -1
M  END
>  <meeko>  (2) 
{"is_sidechain": [false], "free_energy": -7.105, "intermolecular_energy": -10.101, "internal_energy": -1.725}

> <PREPARED_BY>
siam chowdhury
Computational and Medicinal Chemistry
[Dr. Alam's Research Team] www.alamresearch.org
Arkansas State University

$$$$
17sa23_out
     RDKit          3D

 46 49  0  0  0  0  0  0  0  0999 V2000
   15.3390   18.0190   33.3420 O   0  0  0  0  0  0  0  0  0  0  0  0
   14.7090   19.0590   33.4410 C   0  0  0  0  0  0  0  0  0  0  0  0
   15.0250   20.0390   34.3140 O   0  0  0  0  0  0  0  0  0  0  0  0
   13.5030   19.3530   32.6300 C   0  0  0  0  0  0  0  0  0  0  0  0
   12.6450   18.2990   32.2930 C   0  0  0  0  0  0  0  0  0  0  0  0
   11.5160   18.5330   31.4970 C   0  0  0  0  0  0  0  0  0  0  0  0
   11.2520   19.8230   31.0160 C   0  0  0  0  0  0  0  0  0  0  0  0
   10.1330   20.0520   30.1620 N   0  0  0  0  0  0  0  0  0  0  0  0
   10.0710   20.9260   29.1070 C   0  0  0  0  0  0  0  0  0  0  0  0
    8.8350   20.7790   28.5190 C   0  0  0  0  0  0  0  0  0  0  0  0
    8.3650   21.4800   27.2890 C   0  0  0  0  0  0  0  0  0  0  0  0
    7.6340   22.7150   27.5610 N   0  0  0  0  0  0  0  0  0  0  0  0
    6.3230   22.6480   28.0350 C   0  0  0  0  0  0  0  0  0  0  0  0
    6.0590   23.0890   29.3430 C   0  0  0  0  0  0  0  0  0  0  0  0
    4.7810   22.9900   29.9010 C   0  0  0  0  0  0  0  0  0  0  0  0
    3.7590   22.4130   29.1640 C   0  0  0  0  0  0  0  0  0  0  0  0
    2.5340   22.3150   29.6960 F   0  0  0  0  0  0  0  0  0  0  0  0
    4.0120   21.9300   27.8880 C   0  0  0  0  0  0  0  0  0  0  0  0
    3.0310   21.3450   27.1820 F   0  0  0  0  0  0  0  0  0  0  0  0
    5.2830   22.0310   27.3290 C   0  0  0  0  0  0  0  0  0  0  0  0
    8.1550   19.8270   29.3360 C   0  0  0  0  0  0  0  0  0  0  0  0
    6.7750   19.3360   29.2070 C   0  0  0  0  0  0  0  0  0  0  0  0
    6.3300   18.7250   28.0220 C   0  0  0  0  0  0  0  0  0  0  0  0
    5.0280   18.2280   27.9130 C   0  0  0  0  0  0  0  0  0  0  0  0
    4.1540   18.3620   28.9820 C   0  0  0  0  0  0  0  0  0  0  0  0
    2.9040   17.8920   28.8750 F   0  0  0  0  0  0  0  0  0  0  0  0
    4.5580   18.9850   30.1560 C   0  0  0  0  0  0  0  0  0  0  0  0
    5.8650   19.4720   30.2690 C   0  0  0  0  0  0  0  0  0  0  0  0
    8.9730   19.3660   30.3010 N   0  0  0  0  0  0  0  0  0  0  0  0
   12.1190   20.8750   31.3570 C   0  0  0  0  0  0  0  0  0  0  0  0
   13.2440   20.6390   32.1520 C   0  0  0  0  0  0  0  0  0  0  0  0
   12.8584   17.2824   32.6549 H   0  0  0  0  0  0  0  0  0  0  0  0
   10.8365   17.7042   31.2494 H   0  0  0  0  0  0  0  0  0  0  0  0
   10.8643   21.6183   28.7887 H   0  0  0  0  0  0  0  0  0  0  0  0
    9.2421   21.7242   26.6717 H   0  0  0  0  0  0  0  0  0  0  0  0
    7.6683   20.7997   26.7772 H   0  0  0  0  0  0  0  0  0  0  0  0
    8.0640   23.5890   27.4110 H   0  0  0  0  0  0  0  0  0  0  0  0
    6.8752   23.5212   29.9404 H   0  0  0  0  0  0  0  0  0  0  0  0
    4.5883   23.3668   30.9163 H   0  0  0  0  0  0  0  0  0  0  0  0
    5.4717   21.6230   26.3250 H   0  0  0  0  0  0  0  0  0  0  0  0
    7.0168   18.6366   27.1673 H   0  0  0  0  0  0  0  0  0  0  0  0
    4.6990   17.7344   26.9867 H   0  0  0  0  0  0  0  0  0  0  0  0
    3.8533   19.0951   30.9935 H   0  0  0  0  0  0  0  0  0  0  0  0
    6.1833   19.9663   31.1987 H   0  0  0  0  0  0  0  0  0  0  0  0
   11.9105   21.8927   30.9952 H   0  0  0  0  0  0  0  0  0  0  0  0
   13.9251   21.4661   32.4010 H   0  0  0  0  0  0  0  0  0  0  0  0
  1  2  2  0
  2  3  1  0
  2  4  1  0
  4  5  2  0
  5  6  1  0
  6  7  2  0
  7  8  1  0
  8  9  1  0
  9 10  2  0
 10 11  1  0
 11 12  1  0
 12 13  1  0
 13 14  2  0
 14 15  1  0
 15 16  2  0
 16 17  1  0
 16 18  1  0
 18 19  1  0
 18 20  2  0
 10 21  1  0
 21 22  1  0
 22 23  2  0
 23 24  1  0
 24 25  2  0
 25 26  1  0
 25 27  1  0
 27 28  2  0
 21 29  2  0
  7 30  1  0
 30 31  2  0
 31  4  1  0
 29  8  1  0
 20 13  1  0
 28 22  1  0
  5 32  1  0
  6 33  1  0
  9 34  1  0
 11 35  1  0
 11 36  1  0
 12 37  1  0
 14 38  1  0
 15 39  1  0
 20 40  1  0
 23 41  1  0
 24 42  1  0
 27 43  1  0
 28 44  1  0
 30 45  1  0
 31 46  1  0
M  CHG  1   3  -1
M  END
>  <meeko>  (3) 
{"is_sidechain": [false], "free_energy": -6.486, "intermolecular_energy": -8.707, "internal_energy": -2.282}

> <PREPARED_BY>
siam chowdhury
Computational and Medicinal Chemistry
[Dr. Alam's Research Team] www.alamresearch.org
Arkansas State University

$$$$
17sa23_out
     RDKit          3D

 46 49  0  0  0  0  0  0  0  0999 V2000
   15.6040   18.2340   33.2260 O   0  0  0  0  0  0  0  0  0  0  0  0
   14.4410   18.2520   33.5920 C   0  0  0  0  0  0  0  0  0  0  0  0
   14.0330   17.7890   34.7920 O   0  0  0  0  0  0  0  0  0  0  0  0
   13.3360   18.7620   32.7440 C   0  0  0  0  0  0  0  0  0  0  0  0
   12.3220   17.8760   32.3570 C   0  0  0  0  0  0  0  0  0  0  0  0
   11.2820   18.3140   31.5260 C   0  0  0  0  0  0  0  0  0  0  0  0
   11.2620   19.6370   31.0620 C   0  0  0  0  0  0  0  0  0  0  0  0
   10.2320   20.0670   30.1740 N   0  0  0  0  0  0  0  0  0  0  0  0
   10.3860   20.8470   29.0560 C   0  0  0  0  0  0  0  0  0  0  0  0
    9.1510   20.9630   28.4590 C   0  0  0  0  0  0  0  0  0  0  0  0
    8.8660   21.6630   27.1730 C   0  0  0  0  0  0  0  0  0  0  0  0
    8.4150   20.7710   26.1080 N   0  0  0  0  0  0  0  0  0  0  0  0
    7.0750   20.7910   25.7160 C   0  0  0  0  0  0  0  0  0  0  0  0
    6.3100   21.9340   26.0040 C   0  0  0  0  0  0  0  0  0  0  0  0
    4.9480   21.9940   25.6970 C   0  0  0  0  0  0  0  0  0  0  0  0
    4.3280   20.8920   25.1280 C   0  0  0  0  0  0  0  0  0  0  0  0
    3.0230   20.9460   24.8340 F   0  0  0  0  0  0  0  0  0  0  0  0
    5.0580   19.7390   24.8800 C   0  0  0  0  0  0  0  0  0  0  0  0
    4.4550   18.6600   24.3550 F   0  0  0  0  0  0  0  0  0  0  0  0
    6.4160   19.6780   25.1820 C   0  0  0  0  0  0  0  0  0  0  0  0
    8.2600   20.2720   29.3330 C   0  0  0  0  0  0  0  0  0  0  0  0
    6.8000   20.1260   29.2170 C   0  0  0  0  0  0  0  0  0  0  0  0
    5.9370   21.1890   29.5340 C   0  0  0  0  0  0  0  0  0  0  0  0
    4.5530   21.0600   29.3900 C   0  0  0  0  0  0  0  0  0  0  0  0
    4.0210   19.8560   28.9520 C   0  0  0  0  0  0  0  0  0  0  0  0
    2.6940   19.7300   28.8200 F   0  0  0  0  0  0  0  0  0  0  0  0
    4.8480   18.7800   28.6560 C   0  0  0  0  0  0  0  0  0  0  0  0
    6.2350   18.9140   28.7880 C   0  0  0  0  0  0  0  0  0  0  0  0
    8.9400   19.7000   30.3430 N   0  0  0  0  0  0  0  0  0  0  0  0
   12.2840   20.5180   31.4550 C   0  0  0  0  0  0  0  0  0  0  0  0
   13.3210   20.0800   32.2840 C   0  0  0  0  0  0  0  0  0  0  0  0
   12.3423   16.8332   32.7066 H   0  0  0  0  0  0  0  0  0  0  0  0
   10.4800   17.6187   31.2373 H   0  0  0  0  0  0  0  0  0  0  0  0
   11.3248   21.2974   28.7014 H   0  0  0  0  0  0  0  0  0  0  0  0
    8.0826   22.4141   27.3523 H   0  0  0  0  0  0  0  0  0  0  0  0
    9.8105   22.1151   26.8361 H   0  0  0  0  0  0  0  0  0  0  0  0
    9.0520   20.1590   25.6700 H   0  0  0  0  0  0  0  0  0  0  0  0
    6.7932   22.7994   26.4810 H   0  0  0  0  0  0  0  0  0  0  0  0
    4.3725   22.9080   25.9051 H   0  0  0  0  0  0  0  0  0  0  0  0
    6.9747   18.7482   24.9995 H   0  0  0  0  0  0  0  0  0  0  0  0
    6.3574   22.1369   29.9010 H   0  0  0  0  0  0  0  0  0  0  0  0
    3.8904   21.9068   29.6222 H   0  0  0  0  0  0  0  0  0  0  0  0
    4.4148   17.8266   28.3193 H   0  0  0  0  0  0  0  0  0  0  0  0
    6.8891   18.0613   28.5533 H   0  0  0  0  0  0  0  0  0  0  0  0
   12.2678   21.5615   31.1072 H   0  0  0  0  0  0  0  0  0  0  0  0
   14.1244   20.7733   32.5736 H   0  0  0  0  0  0  0  0  0  0  0  0
  1  2  2  0
  2  3  1  0
  2  4  1  0
  4  5  2  0
  5  6  1  0
  6  7  2  0
  7  8  1  0
  8  9  1  0
  9 10  2  0
 10 11  1  0
 11 12  1  0
 12 13  1  0
 13 14  2  0
 14 15  1  0
 15 16  2  0
 16 17  1  0
 16 18  1  0
 18 19  1  0
 18 20  2  0
 10 21  1  0
 21 22  1  0
 22 23  2  0
 23 24  1  0
 24 25  2  0
 25 26  1  0
 25 27  1  0
 27 28  2  0
 21 29  2  0
  7 30  1  0
 30 31  2  0
 31  4  1  0
 29  8  1  0
 20 13  1  0
 28 22  1  0
  5 32  1  0
  6 33  1  0
  9 34  1  0
 11 35  1  0
 11 36  1  0
 12 37  1  0
 14 38  1  0
 15 39  1  0
 20 40  1  0
 23 41  1  0
 24 42  1  0
 27 43  1  0
 28 44  1  0
 30 45  1  0
 31 46  1  0
M  CHG  1   3  -1
M  END
>  <meeko>  (4) 
{"is_sidechain": [false], "free_energy": -6.349, "intermolecular_energy": -8.628, "internal_energy": -2.176}

> <PREPARED_BY>
siam chowdhury
Computational and Medicinal Chemistry
[Dr. Alam's Research Team] www.alamresearch.org
Arkansas State University

$$$$
17sa23_out
     RDKit          3D

 46 49  0  0  0  0  0  0  0  0999 V2000
    5.7640   13.8830   30.6810 O   0  0  0  0  0  0  0  0  0  0  0  0
    6.0970   14.1100   31.8310 C   0  0  0  0  0  0  0  0  0  0  0  0
    5.2540   14.0150   32.8810 O   0  0  0  0  0  0  0  0  0  0  0  0
    7.4650   14.5460   32.2060 C   0  0  0  0  0  0  0  0  0  0  0  0
    7.8230   14.5460   33.5600 C   0  0  0  0  0  0  0  0  0  0  0  0
    9.0940   14.9860   33.9530 C   0  0  0  0  0  0  0  0  0  0  0  0
   10.0060   15.4470   32.9940 C   0  0  0  0  0  0  0  0  0  0  0  0
   11.2800   15.9440   33.4000 N   0  0  0  0  0  0  0  0  0  0  0  0
   12.0690   16.8340   32.7170 C   0  0  0  0  0  0  0  0  0  0  0  0
   13.1740   17.0910   33.4960 C   0  0  0  0  0  0  0  0  0  0  0  0
   14.2610   18.0610   33.1770 C   0  0  0  0  0  0  0  0  0  0  0  0
   13.9720   19.4270   33.6080 N   0  0  0  0  0  0  0  0  0  0  0  0
   13.8880   20.4440   32.6560 C   0  0  0  0  0  0  0  0  0  0  0  0
   12.7300   20.5260   31.8630 C   0  0  0  0  0  0  0  0  0  0  0  0
   12.6070   21.4800   30.8490 C   0  0  0  0  0  0  0  0  0  0  0  0
   13.6620   22.3430   30.5950 C   0  0  0  0  0  0  0  0  0  0  0  0
   13.5490   23.2570   29.6230 F   0  0  0  0  0  0  0  0  0  0  0  0
   14.8310   22.2460   31.3360 C   0  0  0  0  0  0  0  0  0  0  0  0
   15.8650   23.0610   31.0740 F   0  0  0  0  0  0  0  0  0  0  0  0
   14.9530   21.2990   32.3490 C   0  0  0  0  0  0  0  0  0  0  0  0
   13.0210   16.2430   34.6340 C   0  0  0  0  0  0  0  0  0  0  0  0
   13.9410   16.0630   35.7670 C   0  0  0  0  0  0  0  0  0  0  0  0
   13.7150   16.7090   36.9950 C   0  0  0  0  0  0  0  0  0  0  0  0
   14.5710   16.5100   38.0820 C   0  0  0  0  0  0  0  0  0  0  0  0
   15.6750   15.6820   37.9380 C   0  0  0  0  0  0  0  0  0  0  0  0
   16.5000   15.4970   38.9780 F   0  0  0  0  0  0  0  0  0  0  0  0
   15.9390   15.0520   36.7290 C   0  0  0  0  0  0  0  0  0  0  0  0
   15.0740   15.2420   35.6450 C   0  0  0  0  0  0  0  0  0  0  0  0
   11.8460   15.5890   34.5780 N   0  0  0  0  0  0  0  0  0  0  0  0
    9.6370   15.4450   31.6380 C   0  0  0  0  0  0  0  0  0  0  0  0
    8.3690   15.0060   31.2470 C   0  0  0  0  0  0  0  0  0  0  0  0
    7.1043   14.1995   34.3172 H   0  0  0  0  0  0  0  0  0  0  0  0
    9.3764   14.9695   35.0160 H   0  0  0  0  0  0  0  0  0  0  0  0
   11.8572   17.2640   31.7269 H   0  0  0  0  0  0  0  0  0  0  0  0
   15.1826   17.7267   33.6758 H   0  0  0  0  0  0  0  0  0  0  0  0
   14.3620   18.0832   32.0819 H   0  0  0  0  0  0  0  0  0  0  0  0
   13.8390   19.6280   34.5630 H   0  0  0  0  0  0  0  0  0  0  0  0
   11.9028   19.8241   32.0445 H   0  0  0  0  0  0  0  0  0  0  0  0
   11.6816   21.5455   30.2579 H   0  0  0  0  0  0  0  0  0  0  0  0
   15.8943   21.2219   32.9130 H   0  0  0  0  0  0  0  0  0  0  0  0
   12.8511   17.3815   37.1021 H   0  0  0  0  0  0  0  0  0  0  0  0
   14.3711   17.0056   39.0434 H   0  0  0  0  0  0  0  0  0  0  0  0
   16.8236   14.4067   36.6236 H   0  0  0  0  0  0  0  0  0  0  0  0
   15.2838   14.7430   34.6874 H   0  0  0  0  0  0  0  0  0  0  0  0
   10.3523   15.7919   30.8778 H   0  0  0  0  0  0  0  0  0  0  0  0
    8.0837   15.0230   30.1848 H   0  0  0  0  0  0  0  0  0  0  0  0
  1  2  2  0
  2  3  1  0
  2  4  1  0
  4  5  2  0
  5  6  1  0
  6  7  2  0
  7  8  1  0
  8  9  1  0
  9 10  2  0
 10 11  1  0
 11 12  1  0
 12 13  1  0
 13 14  2  0
 14 15  1  0
 15 16  2  0
 16 17  1  0
 16 18  1  0
 18 19  1  0
 18 20  2  0
 10 21  1  0
 21 22  1  0
 22 23  2  0
 23 24  1  0
 24 25  2  0
 25 26  1  0
 25 27  1  0
 27 28  2  0
 21 29  2  0
  7 30  1  0
 30 31  2  0
 31  4  1  0
 29  8  1  0
 20 13  1  0
 28 22  1  0
  5 32  1  0
  6 33  1  0
  9 34  1  0
 11 35  1  0
 11 36  1  0
 12 37  1  0
 14 38  1  0
 15 39  1  0
 20 40  1  0
 23 41  1  0
 24 42  1  0
 27 43  1  0
 28 44  1  0
 30 45  1  0
 31 46  1  0
M  CHG  1   3  -1
M  END
>  <meeko>  (5) 
{"is_sidechain": [false], "free_energy": -6.338, "intermolecular_energy": -9.705, "internal_energy": -1.085}

> <PREPARED_BY>
siam chowdhury
Computational and Medicinal Chemistry
[Dr. Alam's Research Team] www.alamresearch.org
Arkansas State University

$$$$
17sa23_out
     RDKit          3D

 46 49  0  0  0  0  0  0  0  0999 V2000
   15.1090   18.0060   33.4070 O   0  0  0  0  0  0  0  0  0  0  0  0
   14.5930   19.0940   33.2160 C   0  0  0  0  0  0  0  0  0  0  0  0
   15.0600   20.2420   33.7480 O   0  0  0  0  0  0  0  0  0  0  0  0
   13.3700   19.2740   32.3940 C   0  0  0  0  0  0  0  0  0  0  0  0
   13.1010   20.5400   31.8590 C   0  0  0  0  0  0  0  0  0  0  0  0
   11.9370   20.7560   31.1090 C   0  0  0  0  0  0  0  0  0  0  0  0
   11.0260   19.7090   30.9090 C   0  0  0  0  0  0  0  0  0  0  0  0
    9.8160   19.9430   30.1910 N   0  0  0  0  0  0  0  0  0  0  0  0
    8.5650   19.4880   30.5220 C   0  0  0  0  0  0  0  0  0  0  0  0
    7.6800   20.0010   29.6000 C   0  0  0  0  0  0  0  0  0  0  0  0
    6.1990   19.8250   29.6190 C   0  0  0  0  0  0  0  0  0  0  0  0
    5.7140   18.8320   28.6650 N   0  0  0  0  0  0  0  0  0  0  0  0
    5.3810   19.2300   27.3690 C   0  0  0  0  0  0  0  0  0  0  0  0
    4.5550   20.3560   27.2050 C   0  0  0  0  0  0  0  0  0  0  0  0
    4.1320   20.7700   25.9390 C   0  0  0  0  0  0  0  0  0  0  0  0
    4.5050   20.0380   24.8230 C   0  0  0  0  0  0  0  0  0  0  0  0
    4.0990   20.4310   23.6090 F   0  0  0  0  0  0  0  0  0  0  0  0
    5.2800   18.8980   24.9700 C   0  0  0  0  0  0  0  0  0  0  0  0
    5.6200   18.1700   23.8930 F   0  0  0  0  0  0  0  0  0  0  0  0
    5.7060   18.4850   26.2300 C   0  0  0  0  0  0  0  0  0  0  0  0
    8.4970   20.7150   28.6730 C   0  0  0  0  0  0  0  0  0  0  0  0
    8.0840   21.4170   27.4470 C   0  0  0  0  0  0  0  0  0  0  0  0
    8.4070   20.9100   26.1770 C   0  0  0  0  0  0  0  0  0  0  0  0
    7.9850   21.5590   25.0140 C   0  0  0  0  0  0  0  0  0  0  0  0
    7.2570   22.7360   25.1140 C   0  0  0  0  0  0  0  0  0  0  0  0
    6.8590   23.3620   23.9990 F   0  0  0  0  0  0  0  0  0  0  0  0
    6.9460   23.2740   26.3550 C   0  0  0  0  0  0  0  0  0  0  0  0
    7.3580   22.6170   27.5200 C   0  0  0  0  0  0  0  0  0  0  0  0
    9.7820   20.7050   29.0710 N   0  0  0  0  0  0  0  0  0  0  0  0
   11.3030   18.4430   31.4510 C   0  0  0  0  0  0  0  0  0  0  0  0
   12.4650   18.2290   32.1980 C   0  0  0  0  0  0  0  0  0  0  0  0
   13.8057   21.3676   32.0280 H   0  0  0  0  0  0  0  0  0  0  0  0
   11.7379   21.7478   30.6768 H   0  0  0  0  0  0  0  0  0  0  0  0
    8.3144   18.8329   31.3693 H   0  0  0  0  0  0  0  0  0  0  0  0
    5.8995   19.5109   30.6298 H   0  0  0  0  0  0  0  0  0  0  0  0
    5.7567   20.7902   29.3313 H   0  0  0  0  0  0  0  0  0  0  0  0
    5.6220   17.8880   28.9340 H   0  0  0  0  0  0  0  0  0  0  0  0
    4.2351   20.9229   28.0917 H   0  0  0  0  0  0  0  0  0  0  0  0
    3.5082   21.6694   25.8293 H   0  0  0  0  0  0  0  0  0  0  0  0
    6.3024   17.5662   26.3305 H   0  0  0  0  0  0  0  0  0  0  0  0
    9.0013   19.9878   26.0972 H   0  0  0  0  0  0  0  0  0  0  0  0
    8.2281   21.1400   24.0264 H   0  0  0  0  0  0  0  0  0  0  0  0
    6.3777   24.2134   26.4227 H   0  0  0  0  0  0  0  0  0  0  0  0
    7.1107   23.0448   28.5028 H   0  0  0  0  0  0  0  0  0  0  0  0
   10.5998   17.6133   31.2863 H   0  0  0  0  0  0  0  0  0  0  0  0
   12.6662   17.2381   32.6311 H   0  0  0  0  0  0  0  0  0  0  0  0
  1  2  2  0
  2  3  1  0
  2  4  1  0
  4  5  2  0
  5  6  1  0
  6  7  2  0
  7  8  1  0
  8  9  1  0
  9 10  2  0
 10 11  1  0
 11 12  1  0
 12 13  1  0
 13 14  2  0
 14 15  1  0
 15 16  2  0
 16 17  1  0
 16 18  1  0
 18 19  1  0
 18 20  2  0
 10 21  1  0
 21 22  1  0
 22 23  2  0
 23 24  1  0
 24 25  2  0
 25 26  1  0
 25 27  1  0
 27 28  2  0
 21 29  2  0
  7 30  1  0
 30 31  2  0
 31  4  1  0
 29  8  1  0
 20 13  1  0
 28 22  1  0
  5 32  1  0
  6 33  1  0
  9 34  1  0
 11 35  1  0
 11 36  1  0
 12 37  1  0
 14 38  1  0
 15 39  1  0
 20 40  1  0
 23 41  1  0
 24 42  1  0
 27 43  1  0
 28 44  1  0
 30 45  1  0
 31 46  1  0
M  CHG  1   3  -1
M  END
>  <meeko>  (6) 
{"is_sidechain": [false], "free_energy": -6.268, "intermolecular_energy": -8.448, "internal_energy": -2.248}

> <PREPARED_BY>
siam chowdhury
Computational and Medicinal Chemistry
[Dr. Alam's Research Team] www.alamresearch.org
Arkansas State University

$$$$
17sa23_out
     RDKit          3D

 46 49  0  0  0  0  0  0  0  0999 V2000
   15.0560   17.8440   33.7860 O   0  0  0  0  0  0  0  0  0  0  0  0
   14.7430   18.9790   33.4710 C   0  0  0  0  0  0  0  0  0  0  0  0
   15.4430   20.0730   33.8400 O   0  0  0  0  0  0  0  0  0  0  0  0
   13.5360   19.2900   32.6670 C   0  0  0  0  0  0  0  0  0  0  0  0
   12.6750   18.2440   32.3130 C   0  0  0  0  0  0  0  0  0  0  0  0
   11.5460   18.4950   31.5230 C   0  0  0  0  0  0  0  0  0  0  0  0
   11.2840   19.7940   31.0650 C   0  0  0  0  0  0  0  0  0  0  0  0
   10.1640   20.0400   30.2170 N   0  0  0  0  0  0  0  0  0  0  0  0
   10.1320   20.8610   29.1180 C   0  0  0  0  0  0  0  0  0  0  0  0
    8.8790   20.7530   28.5570 C   0  0  0  0  0  0  0  0  0  0  0  0
    8.4260   21.4150   27.2990 C   0  0  0  0  0  0  0  0  0  0  0  0
    8.0240   20.4760   26.2550 N   0  0  0  0  0  0  0  0  0  0  0  0
    6.7550   20.5870   25.6830 C   0  0  0  0  0  0  0  0  0  0  0  0
    6.0290   21.7730   25.8880 C   0  0  0  0  0  0  0  0  0  0  0  0
    4.7290   21.9250   25.3980 C   0  0  0  0  0  0  0  0  0  0  0  0
    4.1280   20.8730   24.7240 C   0  0  0  0  0  0  0  0  0  0  0  0
    2.8820   21.0140   24.2550 F   0  0  0  0  0  0  0  0  0  0  0  0
    4.8120   19.6790   24.5530 C   0  0  0  0  0  0  0  0  0  0  0  0
    4.2230   18.6480   23.9260 F   0  0  0  0  0  0  0  0  0  0  0  0
    6.1090   19.5270   25.0380 C   0  0  0  0  0  0  0  0  0  0  0  0
    8.1630   19.8830   29.4330 C   0  0  0  0  0  0  0  0  0  0  0  0
    6.7560   19.4630   29.3500 C   0  0  0  0  0  0  0  0  0  0  0  0
    6.4040   18.1030   29.3460 C   0  0  0  0  0  0  0  0  0  0  0  0
    5.0650   17.7050   29.3020 C   0  0  0  0  0  0  0  0  0  0  0  0
    4.0690   18.6690   29.2360 C   0  0  0  0  0  0  0  0  0  0  0  0
    2.7850   18.2880   29.1870 F   0  0  0  0  0  0  0  0  0  0  0  0
    4.3880   20.0200   29.2120 C   0  0  0  0  0  0  0  0  0  0  0  0
    5.7290   20.4170   29.2680 C   0  0  0  0  0  0  0  0  0  0  0  0
    8.9710   19.4280   30.4080 N   0  0  0  0  0  0  0  0  0  0  0  0
   12.1540   20.8370   31.4220 C   0  0  0  0  0  0  0  0  0  0  0  0
   13.2800   20.5850   32.2110 C   0  0  0  0  0  0  0  0  0  0  0  0
   12.8862   17.2207   32.6569 H   0  0  0  0  0  0  0  0  0  0  0  0
   10.8643   17.6722   31.2617 H   0  0  0  0  0  0  0  0  0  0  0  0
   10.9565   21.4904   28.7520 H   0  0  0  0  0  0  0  0  0  0  0  0
    7.5671   22.0602   27.5356 H   0  0  0  0  0  0  0  0  0  0  0  0
    9.2823   21.9841   26.9081 H   0  0  0  0  0  0  0  0  0  0  0  0
    8.6430   19.7700   25.9570 H   0  0  0  0  0  0  0  0  0  0  0  0
    6.4940   22.5991   26.4460 H   0  0  0  0  0  0  0  0  0  0  0  0
    4.1874   22.8710   25.5458 H   0  0  0  0  0  0  0  0  0  0  0  0
    6.6293   18.5659   24.9128 H   0  0  0  0  0  0  0  0  0  0  0  0
    7.1949   17.3392   29.3780 H   0  0  0  0  0  0  0  0  0  0  0  0
    4.8029   16.6368   29.3195 H   0  0  0  0  0  0  0  0  0  0  0  0
    3.5905   20.7750   29.1493 H   0  0  0  0  0  0  0  0  0  0  0  0
    5.9810   21.4876   29.2476 H   0  0  0  0  0  0  0  0  0  0  0  0
   11.9476   21.8611   31.0778 H   0  0  0  0  0  0  0  0  0  0  0  0
   13.9639   21.4059   32.4725 H   0  0  0  0  0  0  0  0  0  0  0  0
  1  2  2  0
  2  3  1  0
  2  4  1  0
  4  5  2  0
  5  6  1  0
  6  7  2  0
  7  8  1  0
  8  9  1  0
  9 10  2  0
 10 11  1  0
 11 12  1  0
 12 13  1  0
 13 14  2  0
 14 15  1  0
 15 16  2  0
 16 17  1  0
 16 18  1  0
 18 19  1  0
 18 20  2  0
 10 21  1  0
 21 22  1  0
 22 23  2  0
 23 24  1  0
 24 25  2  0
 25 26  1  0
 25 27  1  0
 27 28  2  0
 21 29  2  0
  7 30  1  0
 30 31  2  0
 31  4  1  0
 29  8  1  0
 20 13  1  0
 28 22  1  0
  5 32  1  0
  6 33  1  0
  9 34  1  0
 11 35  1  0
 11 36  1  0
 12 37  1  0
 14 38  1  0
 15 39  1  0
 20 40  1  0
 23 41  1  0
 24 42  1  0
 27 43  1  0
 28 44  1  0
 30 45  1  0
 31 46  1  0
M  CHG  1   3  -1
M  END
>  <meeko>  (7) 
{"is_sidechain": [false], "free_energy": -6.267, "intermolecular_energy": -9.172, "internal_energy": -1.522}

> <PREPARED_BY>
siam chowdhury
Computational and Medicinal Chemistry
[Dr. Alam's Research Team] www.alamresearch.org
Arkansas State University

$$$$
17sa23_out
     RDKit          3D

 46 49  0  0  0  0  0  0  0  0999 V2000
    6.1170   13.8260   30.4380 O   0  0  0  0  0  0  0  0  0  0  0  0
    6.3700   14.1300   31.5910 C   0  0  0  0  0  0  0  0  0  0  0  0
    5.4530   14.1160   32.5810 O   0  0  0  0  0  0  0  0  0  0  0  0
    7.7130   14.5800   32.0320 C   0  0  0  0  0  0  0  0  0  0  0  0
    7.9790   14.6580   33.4050 C   0  0  0  0  0  0  0  0  0  0  0  0
    9.2240   15.1140   33.8580 C   0  0  0  0  0  0  0  0  0  0  0  0
   10.2040   15.5120   32.9370 C   0  0  0  0  0  0  0  0  0  0  0  0
   11.4520   16.0250   33.4000 N   0  0  0  0  0  0  0  0  0  0  0  0
   12.2410   16.9530   32.7690 C   0  0  0  0  0  0  0  0  0  0  0  0
   13.3150   17.2110   33.5920 C   0  0  0  0  0  0  0  0  0  0  0  0
   14.3880   18.2150   33.3370 C   0  0  0  0  0  0  0  0  0  0  0  0
   14.9550   18.7880   34.5550 N   0  0  0  0  0  0  0  0  0  0  0  0
   14.4950   20.0250   35.0110 C   0  0  0  0  0  0  0  0  0  0  0  0
   14.3920   20.2320   36.3980 C   0  0  0  0  0  0  0  0  0  0  0  0
   13.8790   21.4220   36.9210 C   0  0  0  0  0  0  0  0  0  0  0  0
   13.4300   22.4080   36.0560 C   0  0  0  0  0  0  0  0  0  0  0  0
   12.9360   23.5490   36.5530 F   0  0  0  0  0  0  0  0  0  0  0  0
   13.4810   22.2020   34.6850 C   0  0  0  0  0  0  0  0  0  0  0  0
   13.0200   23.1430   33.8450 F   0  0  0  0  0  0  0  0  0  0  0  0
   13.9950   21.0180   34.1620 C   0  0  0  0  0  0  0  0  0  0  0  0
   13.1440   16.3260   34.6980 C   0  0  0  0  0  0  0  0  0  0  0  0
   14.0320   16.1330   35.8560 C   0  0  0  0  0  0  0  0  0  0  0  0
   13.7280   16.6980   37.1060 C   0  0  0  0  0  0  0  0  0  0  0  0
   14.5530   16.4850   38.2130 C   0  0  0  0  0  0  0  0  0  0  0  0
   15.7050   15.7250   38.0690 C   0  0  0  0  0  0  0  0  0  0  0  0
   16.5000   15.5260   39.1290 F   0  0  0  0  0  0  0  0  0  0  0  0
   16.0450   15.1760   36.8400 C   0  0  0  0  0  0  0  0  0  0  0  0
   15.2110   15.3790   35.7350 C   0  0  0  0  0  0  0  0  0  0  0  0
   11.9880   15.6470   34.5850 N   0  0  0  0  0  0  0  0  0  0  0  0
    9.9280   15.4310   31.5620 C   0  0  0  0  0  0  0  0  0  0  0  0
    8.6850   14.9760   31.1120 C   0  0  0  0  0  0  0  0  0  0  0  0
    7.2075   14.3601   34.1303 H   0  0  0  0  0  0  0  0  0  0  0  0
    9.4330   15.1599   34.9370 H   0  0  0  0  0  0  0  0  0  0  0  0
   12.0508   17.4079   31.7857 H   0  0  0  0  0  0  0  0  0  0  0  0
   15.1962   17.7247   32.7745 H   0  0  0  0  0  0  0  0  0  0  0  0
   13.9288   19.0418   32.7753 H   0  0  0  0  0  0  0  0  0  0  0  0
   15.6580   18.3060   35.0500 H   0  0  0  0  0  0  0  0  0  0  0  0
   14.7224   19.4401   37.0862 H   0  0  0  0  0  0  0  0  0  0  0  0
   13.8319   21.5750   38.0093 H   0  0  0  0  0  0  0  0  0  0  0  0
   14.0079   20.8625   33.0731 H   0  0  0  0  0  0  0  0  0  0  0  0
   12.8259   17.3180   37.2147 H   0  0  0  0  0  0  0  0  0  0  0  0
   14.2916   16.9161   39.1906 H   0  0  0  0  0  0  0  0  0  0  0  0
   16.9661   14.5839   36.7354 H   0  0  0  0  0  0  0  0  0  0  0  0
   15.4814   14.9437   34.7616 H   0  0  0  0  0  0  0  0  0  0  0  0
   10.6964   15.7281   30.8331 H   0  0  0  0  0  0  0  0  0  0  0  0
    8.4732   14.9301   30.0336 H   0  0  0  0  0  0  0  0  0  0  0  0
  1  2  2  0
  2  3  1  0
  2  4  1  0
  4  5  2  0
  5  6  1  0
  6  7  2  0
  7  8  1  0
  8  9  1  0
  9 10  2  0
 10 11  1  0
 11 12  1  0
 12 13  1  0
 13 14  2  0
 14 15  1  0
 15 16  2  0
 16 17  1  0
 16 18  1  0
 18 19  1  0
 18 20  2  0
 10 21  1  0
 21 22  1  0
 22 23  2  0
 23 24  1  0
 24 25  2  0
 25 26  1  0
 25 27  1  0
 27 28  2  0
 21 29  2  0
  7 30  1  0
 30 31  2  0
 31  4  1  0
 29  8  1  0
 20 13  1  0
 28 22  1  0
  5 32  1  0
  6 33  1  0
  9 34  1  0
 11 35  1  0
 11 36  1  0
 12 37  1  0
 14 38  1  0
 15 39  1  0
 20 40  1  0
 23 41  1  0
 24 42  1  0
 27 43  1  0
 28 44  1  0
 30 45  1  0
 31 46  1  0
M  CHG  1   3  -1
M  END
>  <meeko>  (8) 
{"is_sidechain": [false], "free_energy": -6.229, "intermolecular_energy": -9.515, "internal_energy": -1.128}

> <PREPARED_BY>
siam chowdhury
Computational and Medicinal Chemistry
[Dr. Alam's Research Team] www.alamresearch.org
Arkansas State University

$$$$
17sa23_out
     RDKit          3D

 46 49  0  0  0  0  0  0  0  0999 V2000
   15.0520   17.8610   33.2900 O   0  0  0  0  0  0  0  0  0  0  0  0
   14.6300   18.9850   33.0790 C   0  0  0  0  0  0  0  0  0  0  0  0
   15.2230   20.1020   33.5510 O   0  0  0  0  0  0  0  0  0  0  0  0
   13.3950   19.2520   32.3010 C   0  0  0  0  0  0  0  0  0  0  0  0
   13.1590   20.5530   31.8400 C   0  0  0  0  0  0  0  0  0  0  0  0
   11.9850   20.8490   31.1340 C   0  0  0  0  0  0  0  0  0  0  0  0
   11.0320   19.8470   30.9030 C   0  0  0  0  0  0  0  0  0  0  0  0
    9.8140   20.1610   30.2310 N   0  0  0  0  0  0  0  0  0  0  0  0
    8.5420   19.9880   30.7140 C   0  0  0  0  0  0  0  0  0  0  0  0
    7.6700   20.4830   29.7710 C   0  0  0  0  0  0  0  0  0  0  0  0
    6.1880   20.5680   29.9130 C   0  0  0  0  0  0  0  0  0  0  0  0
    5.5810   19.3610   30.4670 N   0  0  0  0  0  0  0  0  0  0  0  0
    5.1250   18.3630   29.6040 C   0  0  0  0  0  0  0  0  0  0  0  0
    5.6620   18.3020   28.3060 C   0  0  0  0  0  0  0  0  0  0  0  0
    5.2030   17.3700   27.3710 C   0  0  0  0  0  0  0  0  0  0  0  0
    4.1740   16.5080   27.7180 C   0  0  0  0  0  0  0  0  0  0  0  0
    3.7300   15.6150   26.8240 F   0  0  0  0  0  0  0  0  0  0  0  0
    3.6000   16.5850   28.9780 C   0  0  0  0  0  0  0  0  0  0  0  0
    2.5840   15.7710   29.3070 F   0  0  0  0  0  0  0  0  0  0  0  0
    4.0580   17.5110   29.9120 C   0  0  0  0  0  0  0  0  0  0  0  0
    8.5010   20.8830   28.6830 C   0  0  0  0  0  0  0  0  0  0  0  0
    8.0950   21.4310   27.3790 C   0  0  0  0  0  0  0  0  0  0  0  0
    7.8200   20.5850   26.2900 C   0  0  0  0  0  0  0  0  0  0  0  0
    7.4010   21.1040   25.0630 C   0  0  0  0  0  0  0  0  0  0  0  0
    7.2800   22.4780   24.9080 C   0  0  0  0  0  0  0  0  0  0  0  0
    6.8850   22.9770   23.7290 F   0  0  0  0  0  0  0  0  0  0  0  0
    7.5700   23.3390   25.9580 C   0  0  0  0  0  0  0  0  0  0  0  0
    7.9780   22.8170   27.1910 C   0  0  0  0  0  0  0  0  0  0  0  0
    9.7990   20.7200   28.9970 N   0  0  0  0  0  0  0  0  0  0  0  0
   11.2770   18.5450   31.3710 C   0  0  0  0  0  0  0  0  0  0  0  0
   12.4480   18.2510   32.0750 C   0  0  0  0  0  0  0  0  0  0  0  0
   13.8974   21.3452   32.0326 H   0  0  0  0  0  0  0  0  0  0  0  0
   11.8111   21.8690   30.7606 H   0  0  0  0  0  0  0  0  0  0  0  0
    8.2686   19.5361   31.6789 H   0  0  0  0  0  0  0  0  0  0  0  0
    5.9507   21.4122   30.5770 H   0  0  0  0  0  0  0  0  0  0  0  0
    5.7754   20.7002   28.9019 H   0  0  0  0  0  0  0  0  0  0  0  0
    5.4950   19.2510   31.4430 H   0  0  0  0  0  0  0  0  0  0  0  0
    6.4604   19.0027   28.0203 H   0  0  0  0  0  0  0  0  0  0  0  0
    5.6541   17.3208   26.3689 H   0  0  0  0  0  0  0  0  0  0  0  0
    3.5775   17.5733   30.8995 H   0  0  0  0  0  0  0  0  0  0  0  0
    7.9367   19.4974   26.4063 H   0  0  0  0  0  0  0  0  0  0  0  0
    7.1687   20.4292   24.2260 H   0  0  0  0  0  0  0  0  0  0  0  0
    7.4795   24.4267   25.8214 H   0  0  0  0  0  0  0  0  0  0  0  0
    8.2094   23.5002   28.0214 H   0  0  0  0  0  0  0  0  0  0  0  0
   10.5406   17.7501   31.1816 H   0  0  0  0  0  0  0  0  0  0  0  0
   12.6235   17.2321   32.4507 H   0  0  0  0  0  0  0  0  0  0  0  0
  1  2  2  0
  2  3  1  0
  2  4  1  0
  4  5  2  0
  5  6  1  0
  6  7  2  0
  7  8  1  0
  8  9  1  0
  9 10  2  0
 10 11  1  0
 11 12  1  0
 12 13  1  0
 13 14  2  0
 14 15  1  0
 15 16  2  0
 16 17  1  0
 16 18  1  0
 18 19  1  0
 18 20  2  0
 10 21  1  0
 21 22  1  0
 22 23  2  0
 23 24  1  0
 24 25  2  0
 25 26  1  0
 25 27  1  0
 27 28  2  0
 21 29  2  0
  7 30  1  0
 30 31  2  0
 31  4  1  0
 29  8  1  0
 20 13  1  0
 28 22  1  0
  5 32  1  0
  6 33  1  0
  9 34  1  0
 11 35  1  0
 11 36  1  0
 12 37  1  0
 14 38  1  0
 15 39  1  0
 20 40  1  0
 23 41  1  0
 24 42  1  0
 27 43  1  0
 28 44  1  0
 30 45  1  0
 31 46  1  0
M  CHG  1   3  -1
M  END
>  <meeko>  (9) 
{"is_sidechain": [false], "free_energy": -6.221, "intermolecular_energy": -9.437, "internal_energy": -1.194}

> <PREPARED_BY>
siam chowdhury
Computational and Medicinal Chemistry
[Dr. Alam's Research Team] www.alamresearch.org
Arkansas State University

$$$$
17sa23_out
     RDKit          3D

 46 49  0  0  0  0  0  0  0  0999 V2000
   15.6280   20.1170   33.5080 O   0  0  0  0  0  0  0  0  0  0  0  0
   14.8500   19.2190   33.2320 C   0  0  0  0  0  0  0  0  0  0  0  0
   15.0700   17.9240   33.5420 O   0  0  0  0  0  0  0  0  0  0  0  0
   13.5820   19.4470   32.4960 C   0  0  0  0  0  0  0  0  0  0  0  0
   12.7580   18.3490   32.2200 C   0  0  0  0  0  0  0  0  0  0  0  0
   11.5720   18.5210   31.4950 C   0  0  0  0  0  0  0  0  0  0  0  0
   11.2140   19.7920   31.0240 C   0  0  0  0  0  0  0  0  0  0  0  0
   10.0340   19.9580   30.2410 N   0  0  0  0  0  0  0  0  0  0  0  0
    8.7980   19.4210   30.4970 C   0  0  0  0  0  0  0  0  0  0  0  0
    7.9350   19.8870   29.5310 C   0  0  0  0  0  0  0  0  0  0  0  0
    6.4700   19.6180   29.4660 C   0  0  0  0  0  0  0  0  0  0  0  0
    6.1160   18.5080   28.5860 N   0  0  0  0  0  0  0  0  0  0  0  0
    5.1380   17.5970   28.9880 C   0  0  0  0  0  0  0  0  0  0  0  0
    3.7930   18.0030   28.9650 C   0  0  0  0  0  0  0  0  0  0  0  0
    2.7700   17.1630   29.4150 C   0  0  0  0  0  0  0  0  0  0  0  0
    3.0900   15.9150   29.9270 C   0  0  0  0  0  0  0  0  0  0  0  0
    2.1130   15.1090   30.3610 F   0  0  0  0  0  0  0  0  0  0  0  0
    4.4160   15.5160   30.0010 C   0  0  0  0  0  0  0  0  0  0  0  0
    4.7310   14.3190   30.5220 F   0  0  0  0  0  0  0  0  0  0  0  0
    5.4360   16.3500   29.5500 C   0  0  0  0  0  0  0  0  0  0  0  0
    8.7550   20.6620   28.6570 C   0  0  0  0  0  0  0  0  0  0  0  0
    8.3670   21.3510   27.4160 C   0  0  0  0  0  0  0  0  0  0  0  0
    8.3210   22.7540   27.3490 C   0  0  0  0  0  0  0  0  0  0  0  0
    7.9860   23.4080   26.1600 C   0  0  0  0  0  0  0  0  0  0  0  0
    7.6690   22.6600   25.0360 C   0  0  0  0  0  0  0  0  0  0  0  0
    7.3410   23.2860   23.8980 F   0  0  0  0  0  0  0  0  0  0  0  0
    7.6810   21.2720   25.0790 C   0  0  0  0  0  0  0  0  0  0  0  0
    8.0290   20.6180   26.2670 C   0  0  0  0  0  0  0  0  0  0  0  0
   10.0140   20.7290   29.1270 N   0  0  0  0  0  0  0  0  0  0  0  0
   12.0480   20.8880   31.3040 C   0  0  0  0  0  0  0  0  0  0  0  0
   13.2310   20.7140   32.0280 C   0  0  0  0  0  0  0  0  0  0  0  0
   13.0433   17.3473   32.5740 H   0  0  0  0  0  0  0  0  0  0  0  0
   10.9205   17.6576   31.2949 H   0  0  0  0  0  0  0  0  0  0  0  0
    8.5429   18.7417   31.3237 H   0  0  0  0  0  0  0  0  0  0  0  0
    6.1144   19.3842   30.4803 H   0  0  0  0  0  0  0  0  0  0  0  0
    5.9953   20.5202   29.0527 H   0  0  0  0  0  0  0  0  0  0  0  0
    6.5650   18.4020   27.7150 H   0  0  0  0  0  0  0  0  0  0  0  0
    3.5394   19.0035   28.5847 H   0  0  0  0  0  0  0  0  0  0  0  0
    1.7208   17.4893   29.3633 H   0  0  0  0  0  0  0  0  0  0  0  0
    6.4838   16.0264   29.6360 H   0  0  0  0  0  0  0  0  0  0  0  0
    8.5523   23.3467   28.2463 H   0  0  0  0  0  0  0  0  0  0  0  0
    7.9739   24.5071   26.1161 H   0  0  0  0  0  0  0  0  0  0  0  0
    7.4183   20.6891   24.1839 H   0  0  0  0  0  0  0  0  0  0  0  0
    8.0377   19.5185   26.3006 H   0  0  0  0  0  0  0  0  0  0  0  0
   11.7675   21.8912   30.9505 H   0  0  0  0  0  0  0  0  0  0  0  0
   13.8850   21.5754   32.2288 H   0  0  0  0  0  0  0  0  0  0  0  0
  1  2  2  0
  2  3  1  0
  2  4  1  0
  4  5  2  0
  5  6  1  0
  6  7  2  0
  7  8  1  0
  8  9  1  0
  9 10  2  0
 10 11  1  0
 11 12  1  0
 12 13  1  0
 13 14  2  0
 14 15  1  0
 15 16  2  0
 16 17  1  0
 16 18  1  0
 18 19  1  0
 18 20  2  0
 10 21  1  0
 21 22  1  0
 22 23  2  0
 23 24  1  0
 24 25  2  0
 25 26  1  0
 25 27  1  0
 27 28  2  0
 21 29  2  0
  7 30  1  0
 30 31  2  0
 31  4  1  0
 29  8  1  0
 20 13  1  0
 28 22  1  0
  5 32  1  0
  6 33  1  0
  9 34  1  0
 11 35  1  0
 11 36  1  0
 12 37  1  0
 14 38  1  0
 15 39  1  0
 20 40  1  0
 23 41  1  0
 24 42  1  0
 27 43  1  0
 28 44  1  0
 30 45  1  0
 31 46  1  0
M  CHG  1   3  -1
M  END
>  <meeko>  (10) 
{"is_sidechain": [false], "free_energy": -6.217, "intermolecular_energy": -9.616, "internal_energy": -1.011}

> <PREPARED_BY>
siam chowdhury
Computational and Medicinal Chemistry
[Dr. Alam's Research Team] www.alamresearch.org
Arkansas State University

$$$$
17sa23_out
     RDKit          3D

 46 49  0  0  0  0  0  0  0  0999 V2000
   16.3920   22.8590   31.7010 O   0  0  0  0  0  0  0  0  0  0  0  0
   15.7680   22.0940   30.9860 C   0  0  0  0  0  0  0  0  0  0  0  0
   15.6850   22.2300   29.6460 O   0  0  0  0  0  0  0  0  0  0  0  0
   15.0030   20.9370   31.5130 C   0  0  0  0  0  0  0  0  0  0  0  0
   15.7080   19.8280   31.9970 C   0  0  0  0  0  0  0  0  0  0  0  0
   15.0180   18.7030   32.4680 C   0  0  0  0  0  0  0  0  0  0  0  0
   13.6160   18.6760   32.4390 C   0  0  0  0  0  0  0  0  0  0  0  0
   12.9160   17.5100   32.8690 N   0  0  0  0  0  0  0  0  0  0  0  0
   13.4110   16.4990   33.6520 C   0  0  0  0  0  0  0  0  0  0  0  0
   12.3840   15.6110   33.8810 C   0  0  0  0  0  0  0  0  0  0  0  0
   12.4540   14.3990   34.7470 C   0  0  0  0  0  0  0  0  0  0  0  0
   12.3950   14.6960   36.1760 N   0  0  0  0  0  0  0  0  0  0  0  0
   13.4040   15.4630   36.7600 C   0  0  0  0  0  0  0  0  0  0  0  0
   14.7010   14.9240   36.8320 C   0  0  0  0  0  0  0  0  0  0  0  0
   15.7420   15.6120   37.4600 C   0  0  0  0  0  0  0  0  0  0  0  0
   15.4860   16.8380   38.0560 C   0  0  0  0  0  0  0  0  0  0  0  0
   16.4810   17.4990   38.6610 F   0  0  0  0  0  0  0  0  0  0  0  0
   14.2030   17.3640   38.0360 C   0  0  0  0  0  0  0  0  0  0  0  0
   13.9460   18.5370   38.6370 F   0  0  0  0  0  0  0  0  0  0  0  0
   13.1650   16.6810   37.4080 C   0  0  0  0  0  0  0  0  0  0  0  0
   11.2870   16.1240   33.1250 C   0  0  0  0  0  0  0  0  0  0  0  0
    9.9460   15.5430   32.9570 C   0  0  0  0  0  0  0  0  0  0  0  0
    9.2310   15.0360   34.0560 C   0  0  0  0  0  0  0  0  0  0  0  0
    7.9440   14.5160   33.9000 C   0  0  0  0  0  0  0  0  0  0  0  0
    7.3720   14.4770   32.6370 C   0  0  0  0  0  0  0  0  0  0  0  0
    6.1400   13.9720   32.4860 F   0  0  0  0  0  0  0  0  0  0  0  0
    8.0640   14.9460   31.5280 C   0  0  0  0  0  0  0  0  0  0  0  0
    9.3490   15.4790   31.6870 C   0  0  0  0  0  0  0  0  0  0  0  0
   11.6160   17.2970   32.5550 N   0  0  0  0  0  0  0  0  0  0  0  0
   12.9170   19.7920   31.9510 C   0  0  0  0  0  0  0  0  0  0  0  0
   13.6070   20.9140   31.4810 C   0  0  0  0  0  0  0  0  0  0  0  0
   16.8079   19.8401   32.0075 H   0  0  0  0  0  0  0  0  0  0  0  0
   15.5763   17.8404   32.8608 H   0  0  0  0  0  0  0  0  0  0  0  0
   14.4410   16.4131   34.0286 H   0  0  0  0  0  0  0  0  0  0  0  0
   11.6094   13.7414   34.4935 H   0  0  0  0  0  0  0  0  0  0  0  0
   13.4272   13.9230   34.5568 H   0  0  0  0  0  0  0  0  0  0  0  0
   11.6490   14.3560   36.7230 H   0  0  0  0  0  0  0  0  0  0  0  0
   14.9000   13.9392   36.3841 H   0  0  0  0  0  0  0  0  0  0  0  0
   16.7556   15.1853   37.4816 H   0  0  0  0  0  0  0  0  0  0  0  0
   12.1487   17.1017   37.4210 H   0  0  0  0  0  0  0  0  0  0  0  0
    9.6923   15.0490   35.0545 H   0  0  0  0  0  0  0  0  0  0  0  0
    7.3885   14.1404   34.7719 H   0  0  0  0  0  0  0  0  0  0  0  0
    7.6048   14.8990   30.5295 H   0  0  0  0  0  0  0  0  0  0  0  0
    9.8965   15.8514   30.8086 H   0  0  0  0  0  0  0  0  0  0  0  0
   11.8171   19.7836   31.9383 H   0  0  0  0  0  0  0  0  0  0  0  0
   13.0509   21.7773   31.0866 H   0  0  0  0  0  0  0  0  0  0  0  0
  1  2  2  0
  2  3  1  0
  2  4  1  0
  4  5  2  0
  5  6  1  0
  6  7  2  0
  7  8  1  0
  8  9  1  0
  9 10  2  0
 10 11  1  0
 11 12  1  0
 12 13  1  0
 13 14  2  0
 14 15  1  0
 15 16  2  0
 16 17  1  0
 16 18  1  0
 18 19  1  0
 18 20  2  0
 10 21  1  0
 21 22  1  0
 22 23  2  0
 23 24  1  0
 24 25  2  0
 25 26  1  0
 25 27  1  0
 27 28  2  0
 21 29  2  0
  7 30  1  0
 30 31  2  0
 31  4  1  0
 29  8  1  0
 20 13  1  0
 28 22  1  0
  5 32  1  0
  6 33  1  0
  9 34  1  0
 11 35  1  0
 11 36  1  0
 12 37  1  0
 14 38  1  0
 15 39  1  0
 20 40  1  0
 23 41  1  0
 24 42  1  0
 27 43  1  0
 28 44  1  0
 30 45  1  0
 31 46  1  0
M  CHG  1   3  -1
M  END
>  <meeko>  (11) 
{"is_sidechain": [false], "free_energy": -6.173, "intermolecular_energy": -9.646, "internal_energy": -0.92}

> <PREPARED_BY>
siam chowdhury
Computational and Medicinal Chemistry
[Dr. Alam's Research Team] www.alamresearch.org
Arkansas State University

$$$$
17sa23_out
     RDKit          3D

 46 49  0  0  0  0  0  0  0  0999 V2000
   15.4540   20.5650   32.6520 O   0  0  0  0  0  0  0  0  0  0  0  0
   14.6960   19.6160   32.5440 C   0  0  0  0  0  0  0  0  0  0  0  0
   15.0170   18.3620   32.9250 O   0  0  0  0  0  0  0  0  0  0  0  0
   13.3390   19.7290   31.9550 C   0  0  0  0  0  0  0  0  0  0  0  0
   12.8940   20.9850   31.5270 C   0  0  0  0  0  0  0  0  0  0  0  0
   11.6040   21.1350   30.9990 C   0  0  0  0  0  0  0  0  0  0  0  0
   10.7460   20.0300   30.9160 C   0  0  0  0  0  0  0  0  0  0  0  0
    9.4160   20.1930   30.4280 N   0  0  0  0  0  0  0  0  0  0  0  0
    8.3810   20.8300   31.0660 C   0  0  0  0  0  0  0  0  0  0  0  0
    7.2990   20.8150   30.2140 C   0  0  0  0  0  0  0  0  0  0  0  0
    5.9800   21.4630   30.4690 C   0  0  0  0  0  0  0  0  0  0  0  0
    5.7220   22.6220   29.6190 N   0  0  0  0  0  0  0  0  0  0  0  0
    4.9440   22.4710   28.4700 C   0  0  0  0  0  0  0  0  0  0  0  0
    3.8640   21.5720   28.5040 C   0  0  0  0  0  0  0  0  0  0  0  0
    3.0840   21.3250   27.3710 C   0  0  0  0  0  0  0  0  0  0  0  0
    3.4000   21.9550   26.1770 C   0  0  0  0  0  0  0  0  0  0  0  0
    2.6570   21.7210   25.0890 F   0  0  0  0  0  0  0  0  0  0  0  0
    4.4910   22.8110   26.1120 C   0  0  0  0  0  0  0  0  0  0  0  0
    4.8170   23.4010   24.9510 F   0  0  0  0  0  0  0  0  0  0  0  0
    5.2660   23.0600   27.2410 C   0  0  0  0  0  0  0  0  0  0  0  0
    7.7400   20.0700   29.0800 C   0  0  0  0  0  0  0  0  0  0  0  0
    6.9720   19.6930   27.8830 C   0  0  0  0  0  0  0  0  0  0  0  0
    7.2440   20.2760   26.6330 C   0  0  0  0  0  0  0  0  0  0  0  0
    6.5370   19.8920   25.4910 C   0  0  0  0  0  0  0  0  0  0  0  0
    5.5350   18.9380   25.5960 C   0  0  0  0  0  0  0  0  0  0  0  0
    4.8530   18.5750   24.5020 F   0  0  0  0  0  0  0  0  0  0  0  0
    5.2270   18.3640   26.8230 C   0  0  0  0  0  0  0  0  0  0  0  0
    5.9440   18.7400   27.9640 C   0  0  0  0  0  0  0  0  0  0  0  0
    9.0380   19.7390   29.2090 N   0  0  0  0  0  0  0  0  0  0  0  0
   11.2010   18.7730   31.3490 C   0  0  0  0  0  0  0  0  0  0  0  0
   12.4880   18.6250   31.8750 C   0  0  0  0  0  0  0  0  0  0  0  0
   13.5589   21.8578   31.6052 H   0  0  0  0  0  0  0  0  0  0  0  0
   11.2648   22.1213   30.6494 H   0  0  0  0  0  0  0  0  0  0  0  0
    8.4103   21.2715   32.0731 H   0  0  0  0  0  0  0  0  0  0  0  0
    5.1881   20.7200   30.2931 H   0  0  0  0  0  0  0  0  0  0  0  0
    5.9939   21.8230   31.5083 H   0  0  0  0  0  0  0  0  0  0  0  0
    6.0960   23.5030   29.8540 H   0  0  0  0  0  0  0  0  0  0  0  0
    3.6274   21.0512   29.4435 H   0  0  0  0  0  0  0  0  0  0  0  0
    2.2273   20.6372   27.4260 H   0  0  0  0  0  0  0  0  0  0  0  0
    6.1390   23.7252   27.1672 H   0  0  0  0  0  0  0  0  0  0  0  0
    8.0253   21.0462   26.5530 H   0  0  0  0  0  0  0  0  0  0  0  0
    6.7729   20.3426   24.5157 H   0  0  0  0  0  0  0  0  0  0  0  0
    4.4229   17.6171   26.8971 H   0  0  0  0  0  0  0  0  0  0  0  0
    5.6998   18.2842   28.9349 H   0  0  0  0  0  0  0  0  0  0  0  0
   10.5389   17.8978   31.2735 H   0  0  0  0  0  0  0  0  0  0  0  0
   12.8297   17.6399   32.2254 H   0  0  0  0  0  0  0  0  0  0  0  0
  1  2  2  0
  2  3  1  0
  2  4  1  0
  4  5  2  0
  5  6  1  0
  6  7  2  0
  7  8  1  0
  8  9  1  0
  9 10  2  0
 10 11  1  0
 11 12  1  0
 12 13  1  0
 13 14  2  0
 14 15  1  0
 15 16  2  0
 16 17  1  0
 16 18  1  0
 18 19  1  0
 18 20  2  0
 10 21  1  0
 21 22  1  0
 22 23  2  0
 23 24  1  0
 24 25  2  0
 25 26  1  0
 25 27  1  0
 27 28  2  0
 21 29  2  0
  7 30  1  0
 30 31  2  0
 31  4  1  0
 29  8  1  0
 20 13  1  0
 28 22  1  0
  5 32  1  0
  6 33  1  0
  9 34  1  0
 11 35  1  0
 11 36  1  0
 12 37  1  0
 14 38  1  0
 15 39  1  0
 20 40  1  0
 23 41  1  0
 24 42  1  0
 27 43  1  0
 28 44  1  0
 30 45  1  0
 31 46  1  0
M  CHG  1   3  -1
M  END
>  <meeko>  (12) 
{"is_sidechain": [false], "free_energy": -5.918, "intermolecular_energy": -8.008, "internal_energy": -2.214}

> <PREPARED_BY>
siam chowdhury
Computational and Medicinal Chemistry
[Dr. Alam's Research Team] www.alamresearch.org
Arkansas State University

$$$$
17sa23_out
     RDKit          3D

 46 49  0  0  0  0  0  0  0  0999 V2000
   13.6750   20.5340   33.7990 O   0  0  0  0  0  0  0  0  0  0  0  0
   13.6710   20.0510   32.6790 C   0  0  0  0  0  0  0  0  0  0  0  0
   14.7860   19.6260   32.0490 O   0  0  0  0  0  0  0  0  0  0  0  0
   12.4380   19.9020   31.8680 C   0  0  0  0  0  0  0  0  0  0  0  0
   11.8670   21.0450   31.2950 C   0  0  0  0  0  0  0  0  0  0  0  0
   10.6820   20.9460   30.5540 C   0  0  0  0  0  0  0  0  0  0  0  0
   10.0510   19.7030   30.4000 C   0  0  0  0  0  0  0  0  0  0  0  0
    8.8170   19.6120   29.6900 N   0  0  0  0  0  0  0  0  0  0  0  0
    8.4580   20.3260   28.5750 C   0  0  0  0  0  0  0  0  0  0  0  0
    7.2180   19.8790   28.1790 C   0  0  0  0  0  0  0  0  0  0  0  0
    6.4760   20.3260   26.9640 C   0  0  0  0  0  0  0  0  0  0  0  0
    5.9370   21.6790   27.0720 N   0  0  0  0  0  0  0  0  0  0  0  0
    4.8110   21.9090   27.8650 C   0  0  0  0  0  0  0  0  0  0  0  0
    3.5420   21.6560   27.3170 C   0  0  0  0  0  0  0  0  0  0  0  0
    2.3720   21.9250   28.0330 C   0  0  0  0  0  0  0  0  0  0  0  0
    2.4620   22.4850   29.2990 C   0  0  0  0  0  0  0  0  0  0  0  0
    1.3440   22.7460   29.9870 F   0  0  0  0  0  0  0  0  0  0  0  0
    3.7050   22.7850   29.8370 C   0  0  0  0  0  0  0  0  0  0  0  0
    3.7950   23.3530   31.0500 F   0  0  0  0  0  0  0  0  0  0  0  0
    4.8710   22.5140   29.1260 C   0  0  0  0  0  0  0  0  0  0  0  0
    6.8450   18.9210   29.1680 C   0  0  0  0  0  0  0  0  0  0  0  0
    5.5870   18.1650   29.2770 C   0  0  0  0  0  0  0  0  0  0  0  0
    4.3420   18.8110   29.1800 C   0  0  0  0  0  0  0  0  0  0  0  0
    3.1490   18.0880   29.2490 C   0  0  0  0  0  0  0  0  0  0  0  0
    3.1930   16.7140   29.4410 C   0  0  0  0  0  0  0  0  0  0  0  0
    2.0480   16.0220   29.5150 F   0  0  0  0  0  0  0  0  0  0  0  0
    4.4070   16.0530   29.5670 C   0  0  0  0  0  0  0  0  0  0  0  0
    5.6030   16.7770   29.4850 C   0  0  0  0  0  0  0  0  0  0  0  0
    7.8440   18.7410   30.0500 N   0  0  0  0  0  0  0  0  0  0  0  0
   10.6300   18.5620   30.9790 C   0  0  0  0  0  0  0  0  0  0  0  0
   11.8120   18.6620   31.7180 C   0  0  0  0  0  0  0  0  0  0  0  0
   12.3505   22.0242   31.4271 H   0  0  0  0  0  0  0  0  0  0  0  0
   10.2460   21.8443   30.0925 H   0  0  0  0  0  0  0  0  0  0  0  0
    9.0526   21.1121   28.0867 H   0  0  0  0  0  0  0  0  0  0  0  0
    7.1629   20.2930   26.1055 H   0  0  0  0  0  0  0  0  0  0  0  0
    5.6195   19.6468   26.8414 H   0  0  0  0  0  0  0  0  0  0  0  0
    6.3640   22.4230   26.5880 H   0  0  0  0  0  0  0  0  0  0  0  0
    3.4677   21.2372   26.3026 H   0  0  0  0  0  0  0  0  0  0  0  0
    1.3889   21.6947   27.5966 H   0  0  0  0  0  0  0  0  0  0  0  0
    5.8474   22.7775   29.5587 H   0  0  0  0  0  0  0  0  0  0  0  0
    4.3070   19.9025   29.0478 H   0  0  0  0  0  0  0  0  0  0  0  0
    2.1821   18.6034   29.1519 H   0  0  0  0  0  0  0  0  0  0  0  0
    4.4296   14.9655   29.7305 H   0  0  0  0  0  0  0  0  0  0  0  0
    6.5648   16.2525   29.5846 H   0  0  0  0  0  0  0  0  0  0  0  0
   10.1491   17.5812   30.8497 H   0  0  0  0  0  0  0  0  0  0  0  0
   12.2491   17.7651   32.1812 H   0  0  0  0  0  0  0  0  0  0  0  0
  1  2  2  0
  2  3  1  0
  2  4  1  0
  4  5  2  0
  5  6  1  0
  6  7  2  0
  7  8  1  0
  8  9  1  0
  9 10  2  0
 10 11  1  0
 11 12  1  0
 12 13  1  0
 13 14  2  0
 14 15  1  0
 15 16  2  0
 16 17  1  0
 16 18  1  0
 18 19  1  0
 18 20  2  0
 10 21  1  0
 21 22  1  0
 22 23  2  0
 23 24  1  0
 24 25  2  0
 25 26  1  0
 25 27  1  0
 27 28  2  0
 21 29  2  0
  7 30  1  0
 30 31  2  0
 31  4  1  0
 29  8  1  0
 20 13  1  0
 28 22  1  0
  5 32  1  0
  6 33  1  0
  9 34  1  0
 11 35  1  0
 11 36  1  0
 12 37  1  0
 14 38  1  0
 15 39  1  0
 20 40  1  0
 23 41  1  0
 24 42  1  0
 27 43  1  0
 28 44  1  0
 30 45  1  0
 31 46  1  0
M  CHG  1   3  -1
M  END
>  <meeko>  (13) 
{"is_sidechain": [false], "free_energy": -5.854, "intermolecular_energy": -8.723, "internal_energy": -1.414}

> <PREPARED_BY>
siam chowdhury
Computational and Medicinal Chemistry
[Dr. Alam's Research Team] www.alamresearch.org
Arkansas State University

$$$$
17sa23_out
     RDKit          3D

 46 49  0  0  0  0  0  0  0  0999 V2000
    5.5070   21.1700   27.5000 O   0  0  0  0  0  0  0  0  0  0  0  0
    6.3530   20.2940   27.4320 C   0  0  0  0  0  0  0  0  0  0  0  0
    6.3020   19.2790   26.5440 O   0  0  0  0  0  0  0  0  0  0  0  0
    7.5230   20.2290   28.3410 C   0  0  0  0  0  0  0  0  0  0  0  0
    8.7230   20.8280   27.9380 C   0  0  0  0  0  0  0  0  0  0  0  0
    9.8590   20.7540   28.7550 C   0  0  0  0  0  0  0  0  0  0  0  0
    9.8040   20.0620   29.9730 C   0  0  0  0  0  0  0  0  0  0  0  0
   10.9750   19.9420   30.7790 N   0  0  0  0  0  0  0  0  0  0  0  0
   11.9290   20.9050   30.9870 C   0  0  0  0  0  0  0  0  0  0  0  0
   12.8440   20.3950   31.8810 C   0  0  0  0  0  0  0  0  0  0  0  0
   14.0110   21.1300   32.4490 C   0  0  0  0  0  0  0  0  0  0  0  0
   13.6440   22.3430   33.1750 N   0  0  0  0  0  0  0  0  0  0  0  0
   13.3750   22.2700   34.5430 C   0  0  0  0  0  0  0  0  0  0  0  0
   14.0620   21.3140   35.3110 C   0  0  0  0  0  0  0  0  0  0  0  0
   13.7950   21.1450   36.6720 C   0  0  0  0  0  0  0  0  0  0  0  0
   12.8080   21.9130   37.2730 C   0  0  0  0  0  0  0  0  0  0  0  0
   12.5480   21.7520   38.5760 F   0  0  0  0  0  0  0  0  0  0  0  0
   12.0880   22.8280   36.5200 C   0  0  0  0  0  0  0  0  0  0  0  0
   11.1130   23.5520   37.0920 F   0  0  0  0  0  0  0  0  0  0  0  0
   12.3560   23.0000   35.1640 C   0  0  0  0  0  0  0  0  0  0  0  0
   12.4090   19.0580   32.1210 C   0  0  0  0  0  0  0  0  0  0  0  0
   13.0480   18.0280   32.9550 C   0  0  0  0  0  0  0  0  0  0  0  0
   14.3540   18.1990   33.4470 C   0  0  0  0  0  0  0  0  0  0  0  0
   14.9470   17.2360   34.2670 C   0  0  0  0  0  0  0  0  0  0  0  0
   14.2450   16.0810   34.5800 C   0  0  0  0  0  0  0  0  0  0  0  0
   14.8160   15.1540   35.3610 F   0  0  0  0  0  0  0  0  0  0  0  0
   12.9640   15.8720   34.0880 C   0  0  0  0  0  0  0  0  0  0  0  0
   12.3660   16.8430   33.2770 C   0  0  0  0  0  0  0  0  0  0  0  0
   11.2520   18.8160   31.4790 N   0  0  0  0  0  0  0  0  0  0  0  0
    8.5970   19.4630   30.3690 C   0  0  0  0  0  0  0  0  0  0  0  0
    7.4650   19.5380   29.5530 C   0  0  0  0  0  0  0  0  0  0  0  0
    8.7740   21.3589   26.9759 H   0  0  0  0  0  0  0  0  0  0  0  0
   10.7947   21.2393   28.4404 H   0  0  0  0  0  0  0  0  0  0  0  0
   11.9580   21.9025   30.5243 H   0  0  0  0  0  0  0  0  0  0  0  0
   14.5413   20.4585   33.1403 H   0  0  0  0  0  0  0  0  0  0  0  0
   14.6391   21.4405   31.6010 H   0  0  0  0  0  0  0  0  0  0  0  0
   13.5850   23.2050   32.7020 H   0  0  0  0  0  0  0  0  0  0  0  0
   14.8261   20.6855   34.8303 H   0  0  0  0  0  0  0  0  0  0  0  0
   14.3621   20.4097   37.2617 H   0  0  0  0  0  0  0  0  0  0  0  0
   11.7617   23.7155   34.5768 H   0  0  0  0  0  0  0  0  0  0  0  0
   14.9178   19.1056   33.1820 H   0  0  0  0  0  0  0  0  0  0  0  0
   15.9620   17.3921   34.6612 H   0  0  0  0  0  0  0  0  0  0  0  0
   12.4214   14.9474   34.3345 H   0  0  0  0  0  0  0  0  0  0  0  0
   11.3509   16.6765   32.8874 H   0  0  0  0  0  0  0  0  0  0  0  0
    8.5422   18.9302   31.3298 H   0  0  0  0  0  0  0  0  0  0  0  0
    6.5285   19.0528   29.8654 H   0  0  0  0  0  0  0  0  0  0  0  0
  1  2  2  0
  2  3  1  0
  2  4  1  0
  4  5  2  0
  5  6  1  0
  6  7  2  0
  7  8  1  0
  8  9  1  0
  9 10  2  0
 10 11  1  0
 11 12  1  0
 12 13  1  0
 13 14  2  0
 14 15  1  0
 15 16  2  0
 16 17  1  0
 16 18  1  0
 18 19  1  0
 18 20  2  0
 10 21  1  0
 21 22  1  0
 22 23  2  0
 23 24  1  0
 24 25  2  0
 25 26  1  0
 25 27  1  0
 27 28  2  0
 21 29  2  0
  7 30  1  0
 30 31  2  0
 31  4  1  0
 29  8  1  0
 20 13  1  0
 28 22  1  0
  5 32  1  0
  6 33  1  0
  9 34  1  0
 11 35  1  0
 11 36  1  0
 12 37  1  0
 14 38  1  0
 15 39  1  0
 20 40  1  0
 23 41  1  0
 24 42  1  0
 27 43  1  0
 28 44  1  0
 30 45  1  0
 31 46  1  0
M  CHG  1   3  -1
M  END
>  <meeko>  (14) 
{"is_sidechain": [false], "free_energy": -5.681, "intermolecular_energy": -8.862, "internal_energy": -1.041}

> <PREPARED_BY>
siam chowdhury
Computational and Medicinal Chemistry
[Dr. Alam's Research Team] www.alamresearch.org
Arkansas State University

$$$$
17sa23_out
     RDKit          3D

 46 49  0  0  0  0  0  0  0  0999 V2000
    5.2090   20.9140   28.1720 O   0  0  0  0  0  0  0  0  0  0  0  0
    6.3100   20.8520   27.6510 C   0  0  0  0  0  0  0  0  0  0  0  0
    6.5130   20.9860   26.3240 O   0  0  0  0  0  0  0  0  0  0  0  0
    7.5530   20.5910   28.4180 C   0  0  0  0  0  0  0  0  0  0  0  0
    7.4700   19.8460   29.6010 C   0  0  0  0  0  0  0  0  0  0  0  0
    8.6180   19.6120   30.3700 C   0  0  0  0  0  0  0  0  0  0  0  0
    9.8520   20.1420   29.9680 C   0  0  0  0  0  0  0  0  0  0  0  0
   11.0100   19.9480   30.7790 N   0  0  0  0  0  0  0  0  0  0  0  0
   12.0250   20.8470   30.9870 C   0  0  0  0  0  0  0  0  0  0  0  0
   12.9020   20.2810   31.8850 C   0  0  0  0  0  0  0  0  0  0  0  0
   14.1130   20.9400   32.4550 C   0  0  0  0  0  0  0  0  0  0  0  0
   13.8290   22.2000   33.1360 N   0  0  0  0  0  0  0  0  0  0  0  0
   13.3770   22.1820   34.4560 C   0  0  0  0  0  0  0  0  0  0  0  0
   12.4250   23.1370   34.8530 C   0  0  0  0  0  0  0  0  0  0  0  0
   11.9780   23.2150   36.1750 C   0  0  0  0  0  0  0  0  0  0  0  0
   12.5090   22.3550   37.1250 C   0  0  0  0  0  0  0  0  0  0  0  0
   12.0850   22.4270   38.3930 F   0  0  0  0  0  0  0  0  0  0  0  0
   13.4830   21.4370   36.7610 C   0  0  0  0  0  0  0  0  0  0  0  0
   14.0190   20.6220   37.6840 F   0  0  0  0  0  0  0  0  0  0  0  0
   13.9270   21.3560   35.4440 C   0  0  0  0  0  0  0  0  0  0  0  0
   12.3790   18.9760   32.1280 C   0  0  0  0  0  0  0  0  0  0  0  0
   12.9470   17.9090   32.9670 C   0  0  0  0  0  0  0  0  0  0  0  0
   14.2380   18.0220   33.5110 C   0  0  0  0  0  0  0  0  0  0  0  0
   14.7630   17.0240   34.3350 C   0  0  0  0  0  0  0  0  0  0  0  0
   14.0070   15.8920   34.6020 C   0  0  0  0  0  0  0  0  0  0  0  0
   14.5120   14.9310   35.3870 F   0  0  0  0  0  0  0  0  0  0  0  0
   12.7380   15.7400   34.0580 C   0  0  0  0  0  0  0  0  0  0  0  0
   12.2090   16.7460   33.2420 C   0  0  0  0  0  0  0  0  0  0  0  0
   11.2110   18.8080   31.4830 N   0  0  0  0  0  0  0  0  0  0  0  0
    9.9260   20.8900   28.7820 C   0  0  0  0  0  0  0  0  0  0  0  0
    8.7800   21.1220   28.0150 C   0  0  0  0  0  0  0  0  0  0  0  0
    6.5001   19.4430   29.9278 H   0  0  0  0  0  0  0  0  0  0  0  0
    8.5508   19.0121   31.2896 H   0  0  0  0  0  0  0  0  0  0  0  0
   12.1208   21.8390   30.5214 H   0  0  0  0  0  0  0  0  0  0  0  0
   14.5758   20.2514   33.1772 H   0  0  0  0  0  0  0  0  0  0  0  0
   14.7795   21.1732   31.6116 H   0  0  0  0  0  0  0  0  0  0  0  0
   13.9550   23.0570   32.6660 H   0  0  0  0  0  0  0  0  0  0  0  0
   12.0230   23.8383   34.1069 H   0  0  0  0  0  0  0  0  0  0  0  0
   11.2122   23.9516   36.4594 H   0  0  0  0  0  0  0  0  0  0  0  0
   14.7161   20.6375   35.1774 H   0  0  0  0  0  0  0  0  0  0  0  0
   14.8448   18.9110   33.2841 H   0  0  0  0  0  0  0  0  0  0  0  0
   15.7678   17.1347   34.7687 H   0  0  0  0  0  0  0  0  0  0  0  0
   12.1518   14.8331   34.2677 H   0  0  0  0  0  0  0  0  0  0  0  0
   11.2042   16.6248   32.8112 H   0  0  0  0  0  0  0  0  0  0  0  0
   10.8937   21.2970   28.4534 H   0  0  0  0  0  0  0  0  0  0  0  0
    8.8450   21.7220   27.0954 H   0  0  0  0  0  0  0  0  0  0  0  0
  1  2  2  0
  2  3  1  0
  2  4  1  0
  4  5  2  0
  5  6  1  0
  6  7  2  0
  7  8  1  0
  8  9  1  0
  9 10  2  0
 10 11  1  0
 11 12  1  0
 12 13  1  0
 13 14  2  0
 14 15  1  0
 15 16  2  0
 16 17  1  0
 16 18  1  0
 18 19  1  0
 18 20  2  0
 10 21  1  0
 21 22  1  0
 22 23  2  0
 23 24  1  0
 24 25  2  0
 25 26  1  0
 25 27  1  0
 27 28  2  0
 21 29  2  0
  7 30  1  0
 30 31  2  0
 31  4  1  0
 29  8  1  0
 20 13  1  0
 28 22  1  0
  5 32  1  0
  6 33  1  0
  9 34  1  0
 11 35  1  0
 11 36  1  0
 12 37  1  0
 14 38  1  0
 15 39  1  0
 20 40  1  0
 23 41  1  0
 24 42  1  0
 27 43  1  0
 28 44  1  0
 30 45  1  0
 31 46  1  0
M  CHG  1   3  -1
M  END
>  <meeko>  (15) 
{"is_sidechain": [false], "free_energy": -5.555, "intermolecular_energy": -8.759, "internal_energy": -0.973}

> <PREPARED_BY>
siam chowdhury
Computational and Medicinal Chemistry
[Dr. Alam's Research Team] www.alamresearch.org
Arkansas State University

$$$$
17sa23_out
     RDKit          3D

 46 49  0  0  0  0  0  0  0  0999 V2000
    6.0850   21.0360   26.4590 O   0  0  0  0  0  0  0  0  0  0  0  0
    6.0820   20.5290   27.5680 C   0  0  0  0  0  0  0  0  0  0  0  0
    4.9570   20.1470   28.2080 O   0  0  0  0  0  0  0  0  0  0  0  0
    7.3190   20.3010   28.3550 C   0  0  0  0  0  0  0  0  0  0  0  0
    7.2180   19.6590   29.5960 C   0  0  0  0  0  0  0  0  0  0  0  0
    8.3590   19.4600   30.3830 C   0  0  0  0  0  0  0  0  0  0  0  0
    9.6070   19.9210   29.9400 C   0  0  0  0  0  0  0  0  0  0  0  0
   10.7600   19.7640   30.7650 N   0  0  0  0  0  0  0  0  0  0  0  0
   11.2420   18.5910   31.2880 C   0  0  0  0  0  0  0  0  0  0  0  0
   12.4050   18.8850   31.9620 C   0  0  0  0  0  0  0  0  0  0  0  0
   13.3050   17.8950   32.6230 C   0  0  0  0  0  0  0  0  0  0  0  0
   12.6370   17.0770   33.6320 N   0  0  0  0  0  0  0  0  0  0  0  0
   13.3870   16.5070   34.6610 C   0  0  0  0  0  0  0  0  0  0  0  0
   13.4290   17.1630   35.9040 C   0  0  0  0  0  0  0  0  0  0  0  0
   14.2120   16.6800   36.9560 C   0  0  0  0  0  0  0  0  0  0  0  0
   14.9910   15.5500   36.7620 C   0  0  0  0  0  0  0  0  0  0  0  0
   15.7440   15.0860   37.7670 F   0  0  0  0  0  0  0  0  0  0  0  0
   14.9980   14.9160   35.5280 C   0  0  0  0  0  0  0  0  0  0  0  0
   15.7730   13.8380   35.3290 F   0  0  0  0  0  0  0  0  0  0  0  0
   14.2160   15.3940   34.4800 C   0  0  0  0  0  0  0  0  0  0  0  0
   12.5310   20.3030   31.8670 C   0  0  0  0  0  0  0  0  0  0  0  0
   13.5640   21.1680   32.4590 C   0  0  0  0  0  0  0  0  0  0  0  0
   13.2490   22.0780   33.4820 C   0  0  0  0  0  0  0  0  0  0  0  0
   14.2370   22.8740   34.0670 C   0  0  0  0  0  0  0  0  0  0  0  0
   15.5450   22.7840   33.6130 C   0  0  0  0  0  0  0  0  0  0  0  0
   16.4910   23.5520   34.1680 F   0  0  0  0  0  0  0  0  0  0  0  0
   15.8810   21.9130   32.5850 C   0  0  0  0  0  0  0  0  0  0  0  0
   14.8930   21.1060   32.0080 C   0  0  0  0  0  0  0  0  0  0  0  0
   11.5490   20.8130   31.1010 N   0  0  0  0  0  0  0  0  0  0  0  0
    9.6990   20.5650   28.6950 C   0  0  0  0  0  0  0  0  0  0  0  0
    8.5590   20.7630   27.9110 C   0  0  0  0  0  0  0  0  0  0  0  0
    6.2382   19.3097   29.9538 H   0  0  0  0  0  0  0  0  0  0  0  0
    8.2762   18.9416   31.3496 H   0  0  0  0  0  0  0  0  0  0  0  0
   10.7825   17.5967   31.1870 H   0  0  0  0  0  0  0  0  0  0  0  0
   13.7145   17.2277   31.8503 H   0  0  0  0  0  0  0  0  0  0  0  0
   14.0885   18.4680   33.1406 H   0  0  0  0  0  0  0  0  0  0  0  0
   11.6630   16.9290   33.5850 H   0  0  0  0  0  0  0  0  0  0  0  0
   12.8329   18.0757   36.0515 H   0  0  0  0  0  0  0  0  0  0  0  0
   14.2101   17.1921   37.9295 H   0  0  0  0  0  0  0  0  0  0  0  0
   14.2500   14.8927   33.5015 H   0  0  0  0  0  0  0  0  0  0  0  0
   12.2084   22.1651   33.8277 H   0  0  0  0  0  0  0  0  0  0  0  0
   13.9798   23.5670   34.8816 H   0  0  0  0  0  0  0  0  0  0  0  0
   16.9191   21.8573   32.2255 H   0  0  0  0  0  0  0  0  0  0  0  0
   15.1601   20.4166   31.1935 H   0  0  0  0  0  0  0  0  0  0  0  0
   10.6768   20.9165   28.3339 H   0  0  0  0  0  0  0  0  0  0  0  0
    8.6390   21.2826   26.9447 H   0  0  0  0  0  0  0  0  0  0  0  0
  1  2  2  0
  2  3  1  0
  2  4  1  0
  4  5  2  0
  5  6  1  0
  6  7  2  0
  7  8  1  0
  8  9  1  0
  9 10  2  0
 10 11  1  0
 11 12  1  0
 12 13  1  0
 13 14  2  0
 14 15  1  0
 15 16  2  0
 16 17  1  0
 16 18  1  0
 18 19  1  0
 18 20  2  0
 10 21  1  0
 21 22  1  0
 22 23  2  0
 23 24  1  0
 24 25  2  0
 25 26  1  0
 25 27  1  0
 27 28  2  0
 21 29  2  0
  7 30  1  0
 30 31  2  0
 31  4  1  0
 29  8  1  0
 20 13  1  0
 28 22  1  0
  5 32  1  0
  6 33  1  0
  9 34  1  0
 11 35  1  0
 11 36  1  0
 12 37  1  0
 14 38  1  0
 15 39  1  0
 20 40  1  0
 23 41  1  0
 24 42  1  0
 27 43  1  0
 28 44  1  0
 30 45  1  0
 31 46  1  0
M  CHG  1   3  -1
M  END
>  <meeko>  (16) 
{"is_sidechain": [false], "free_energy": -5.463, "intermolecular_energy": -8.658, "internal_energy": -0.949}

> <PREPARED_BY>
siam chowdhury
Computational and Medicinal Chemistry
[Dr. Alam's Research Team] www.alamresearch.org
Arkansas State University

$$$$
17sa23_out
     RDKit          3D

 46 49  0  0  0  0  0  0  0  0999 V2000
    4.7930   21.7420   27.1130 O   0  0  0  0  0  0  0  0  0  0  0  0
    5.8800   21.4190   26.6650 C   0  0  0  0  0  0  0  0  0  0  0  0
    6.1420   21.3260   25.3450 O   0  0  0  0  0  0  0  0  0  0  0  0
    7.0350   21.0640   27.5260 C   0  0  0  0  0  0  0  0  0  0  0  0
    6.7940   20.3890   28.7300 C   0  0  0  0  0  0  0  0  0  0  0  0
    7.8570   20.0710   29.5850 C   0  0  0  0  0  0  0  0  0  0  0  0
    9.1660   20.4450   29.2490 C   0  0  0  0  0  0  0  0  0  0  0  0
   10.2410   20.1680   30.1450 N   0  0  0  0  0  0  0  0  0  0  0  0
   10.4780   18.9850   30.7990 C   0  0  0  0  0  0  0  0  0  0  0  0
   11.6520   19.1310   31.5040 C   0  0  0  0  0  0  0  0  0  0  0  0
   12.3300   18.0670   32.3000 C   0  0  0  0  0  0  0  0  0  0  0  0
   11.6200   16.7910   32.2960 N   0  0  0  0  0  0  0  0  0  0  0  0
   11.6050   16.0100   33.4530 C   0  0  0  0  0  0  0  0  0  0  0  0
   10.4340   15.2980   33.7670 C   0  0  0  0  0  0  0  0  0  0  0  0
   10.3300   14.5490   34.9420 C   0  0  0  0  0  0  0  0  0  0  0  0
   11.3900   14.5320   35.8350 C   0  0  0  0  0  0  0  0  0  0  0  0
   11.2930   13.8170   36.9630 F   0  0  0  0  0  0  0  0  0  0  0  0
   12.5350   15.2660   35.5650 C   0  0  0  0  0  0  0  0  0  0  0  0
   13.5530   15.2750   36.4410 F   0  0  0  0  0  0  0  0  0  0  0  0
   12.6420   16.0100   34.3930 C   0  0  0  0  0  0  0  0  0  0  0  0
   12.0410   20.4860   31.2850 C   0  0  0  0  0  0  0  0  0  0  0  0
   13.1930   21.2060   31.8490 C   0  0  0  0  0  0  0  0  0  0  0  0
   13.0200   22.2050   32.8230 C   0  0  0  0  0  0  0  0  0  0  0  0
   14.1180   22.8640   33.3820 C   0  0  0  0  0  0  0  0  0  0  0  0
   15.3970   22.5450   32.9510 C   0  0  0  0  0  0  0  0  0  0  0  0
   16.4500   23.1820   33.4820 F   0  0  0  0  0  0  0  0  0  0  0  0
   15.5980   21.5820   31.9710 C   0  0  0  0  0  0  0  0  0  0  0  0
   14.4980   20.9130   31.4200 C   0  0  0  0  0  0  0  0  0  0  0  0
   11.1970   21.0850   30.4250 N   0  0  0  0  0  0  0  0  0  0  0  0
    9.3980   21.1240   28.0410 C   0  0  0  0  0  0  0  0  0  0  0  0
    8.3360   21.4400   27.1880 C   0  0  0  0  0  0  0  0  0  0  0  0
    5.7666   20.1079   29.0047 H   0  0  0  0  0  0  0  0  0  0  0  0
    7.6646   19.5270   30.5215 H   0  0  0  0  0  0  0  0  0  0  0  0
    9.8461   18.0852   30.7661 H   0  0  0  0  0  0  0  0  0  0  0  0
   13.3348   17.9070   31.8818 H   0  0  0  0  0  0  0  0  0  0  0  0
   12.3611   18.4152   33.3430 H   0  0  0  0  0  0  0  0  0  0  0  0
   11.1560   16.4830   31.4830 H   0  0  0  0  0  0  0  0  0  0  0  0
    9.5814   15.3313   33.0728 H   0  0  0  0  0  0  0  0  0  0  0  0
    9.4148   13.9777   35.1565 H   0  0  0  0  0  0  0  0  0  0  0  0
   13.5492   16.6028   34.2042 H   0  0  0  0  0  0  0  0  0  0  0  0
   12.0043   22.4720   33.1501 H   0  0  0  0  0  0  0  0  0  0  0  0
   13.9691   23.6296   34.1577 H   0  0  0  0  0  0  0  0  0  0  0  0
   16.6165   21.3457   31.6291 H   0  0  0  0  0  0  0  0  0  0  0  0
   14.6576   20.1504   30.6435 H   0  0  0  0  0  0  0  0  0  0  0  0
   10.4236   21.4094   27.7640 H   0  0  0  0  0  0  0  0  0  0  0  0
    8.5257   21.9845   26.2513 H   0  0  0  0  0  0  0  0  0  0  0  0
  1  2  2  0
  2  3  1  0
  2  4  1  0
  4  5  2  0
  5  6  1  0
  6  7  2  0
  7  8  1  0
  8  9  1  0
  9 10  2  0
 10 11  1  0
 11 12  1  0
 12 13  1  0
 13 14  2  0
 14 15  1  0
 15 16  2  0
 16 17  1  0
 16 18  1  0
 18 19  1  0
 18 20  2  0
 10 21  1  0
 21 22  1  0
 22 23  2  0
 23 24  1  0
 24 25  2  0
 25 26  1  0
 25 27  1  0
 27 28  2  0
 21 29  2  0
  7 30  1  0
 30 31  2  0
 31  4  1  0
 29  8  1  0
 20 13  1  0
 28 22  1  0
  5 32  1  0
  6 33  1  0
  9 34  1  0
 11 35  1  0
 11 36  1  0
 12 37  1  0
 14 38  1  0
 15 39  1  0
 20 40  1  0
 23 41  1  0
 24 42  1  0
 27 43  1  0
 28 44  1  0
 30 45  1  0
 31 46  1  0
M  CHG  1   3  -1
M  END
>  <meeko>  (17) 
{"is_sidechain": [false], "free_energy": -5.213, "intermolecular_energy": -8.311, "internal_energy": -0.958}

> <PREPARED_BY>
siam chowdhury
Computational and Medicinal Chemistry
[Dr. Alam's Research Team] www.alamresearch.org
Arkansas State University

$$$$
17sa23_out
     RDKit          3D

 46 49  0  0  0  0  0  0  0  0999 V2000
    1.7310   15.6880   28.6280 O   0  0  0  0  0  0  0  0  0  0  0  0
    2.2330   16.1510   29.6380 C   0  0  0  0  0  0  0  0  0  0  0  0
    1.6650   16.0590   30.8590 O   0  0  0  0  0  0  0  0  0  0  0  0
    3.5160   16.8950   29.6350 C   0  0  0  0  0  0  0  0  0  0  0  0
    3.5000   18.2640   29.3410 C   0  0  0  0  0  0  0  0  0  0  0  0
    4.6970   18.9900   29.2930 C   0  0  0  0  0  0  0  0  0  0  0  0
    5.9200   18.3440   29.5200 C   0  0  0  0  0  0  0  0  0  0  0  0
    7.1420   19.0720   29.4190 N   0  0  0  0  0  0  0  0  0  0  0  0
    7.4450   20.0410   28.4960 C   0  0  0  0  0  0  0  0  0  0  0  0
    8.6970   20.5270   28.8020 C   0  0  0  0  0  0  0  0  0  0  0  0
    9.3930   21.6470   28.1040 C   0  0  0  0  0  0  0  0  0  0  0  0
    9.4170   21.5070   26.6510 N   0  0  0  0  0  0  0  0  0  0  0  0
    8.2770   21.8270   25.9110 C   0  0  0  0  0  0  0  0  0  0  0  0
    7.6750   23.0810   26.1150 C   0  0  0  0  0  0  0  0  0  0  0  0
    6.4960   23.4400   25.4550 C   0  0  0  0  0  0  0  0  0  0  0  0
    5.8880   22.5280   24.6060 C   0  0  0  0  0  0  0  0  0  0  0  0
    4.7570   22.8670   23.9730 F   0  0  0  0  0  0  0  0  0  0  0  0
    6.4420   21.2690   24.4280 C   0  0  0  0  0  0  0  0  0  0  0  0
    5.8400   20.3750   23.6280 F   0  0  0  0  0  0  0  0  0  0  0  0
    7.6180   20.9120   25.0820 C   0  0  0  0  0  0  0  0  0  0  0  0
    9.1340   19.7350   29.9050 C   0  0  0  0  0  0  0  0  0  0  0  0
   10.4280   19.7810   30.6050 C   0  0  0  0  0  0  0  0  0  0  0  0
   11.1380   20.9860   30.7380 C   0  0  0  0  0  0  0  0  0  0  0  0
   12.3500   21.0350   31.4310 C   0  0  0  0  0  0  0  0  0  0  0  0
   12.8720   19.8710   31.9760 C   0  0  0  0  0  0  0  0  0  0  0  0
   14.0370   19.9160   32.6360 F   0  0  0  0  0  0  0  0  0  0  0  0
   12.2050   18.6610   31.8380 C   0  0  0  0  0  0  0  0  0  0  0  0
   10.9850   18.6150   31.1540 C   0  0  0  0  0  0  0  0  0  0  0  0
    8.1620   18.8890   30.2920 N   0  0  0  0  0  0  0  0  0  0  0  0
    5.9280   16.9700   29.8130 C   0  0  0  0  0  0  0  0  0  0  0  0
    4.7330   16.2470   29.8600 C   0  0  0  0  0  0  0  0  0  0  0  0
    2.5435   18.7714   29.1469 H   0  0  0  0  0  0  0  0  0  0  0  0
    4.6771   20.0684   29.0769 H   0  0  0  0  0  0  0  0  0  0  0  0
    6.8051   20.3696   27.6638 H   0  0  0  0  0  0  0  0  0  0  0  0
    8.8776   22.5860   28.3541 H   0  0  0  0  0  0  0  0  0  0  0  0
   10.4386   21.6389   28.4455 H   0  0  0  0  0  0  0  0  0  0  0  0
   10.2310   21.1890   26.1960 H   0  0  0  0  0  0  0  0  0  0  0  0
    8.1419   23.7953   26.8091 H   0  0  0  0  0  0  0  0  0  0  0  0
    6.0551   24.4361   25.6078 H   0  0  0  0  0  0  0  0  0  0  0  0
    8.0327   19.9023   24.9460 H   0  0  0  0  0  0  0  0  0  0  0  0
   10.7332   21.9052   30.2895 H   0  0  0  0  0  0  0  0  0  0  0  0
   12.8861   21.9889   31.5436 H   0  0  0  0  0  0  0  0  0  0  0  0
   12.6339   17.7423   32.2646 H   0  0  0  0  0  0  0  0  0  0  0  0
   10.4573   17.6560   31.0454 H   0  0  0  0  0  0  0  0  0  0  0  0
    6.8827   16.4591   30.0070 H   0  0  0  0  0  0  0  0  0  0  0  0
    4.7506   15.1682   30.0741 H   0  0  0  0  0  0  0  0  0  0  0  0
  1  2  2  0
  2  3  1  0
  2  4  1  0
  4  5  2  0
  5  6  1  0
  6  7  2  0
  7  8  1  0
  8  9  1  0
  9 10  2  0
 10 11  1  0
 11 12  1  0
 12 13  1  0
 13 14  2  0
 14 15  1  0
 15 16  2  0
 16 17  1  0
 16 18  1  0
 18 19  1  0
 18 20  2  0
 10 21  1  0
 21 22  1  0
 22 23  2  0
 23 24  1  0
 24 25  2  0
 25 26  1  0
 25 27  1  0
 27 28  2  0
 21 29  2  0
  7 30  1  0
 30 31  2  0
 31  4  1  0
 29  8  1  0
 20 13  1  0
 28 22  1  0
  5 32  1  0
  6 33  1  0
  9 34  1  0
 11 35  1  0
 11 36  1  0
 12 37  1  0
 14 38  1  0
 15 39  1  0
 20 40  1  0
 23 41  1  0
 24 42  1  0
 27 43  1  0
 28 44  1  0
 30 45  1  0
 31 46  1  0
M  CHG  1   3  -1
M  END
>  <meeko>  (18) 
{"is_sidechain": [false], "free_energy": -5.166, "intermolecular_energy": -8.583, "internal_energy": -0.623}

> <PREPARED_BY>
siam chowdhury
Computational and Medicinal Chemistry
[Dr. Alam's Research Team] www.alamresearch.org
Arkansas State University

$$$$
17sa23_out
     RDKit          3D

 46 49  0  0  0  0  0  0  0  0999 V2000
   14.1340   18.6910   32.6660 O   0  0  0  0  0  0  0  0  0  0  0  0
   12.9970   18.2610   32.5740 C   0  0  0  0  0  0  0  0  0  0  0  0
   12.5700   17.1480   33.2070 O   0  0  0  0  0  0  0  0  0  0  0  0
   11.9580   18.8980   31.7280 C   0  0  0  0  0  0  0  0  0  0  0  0
   12.1080   20.2460   31.3810 C   0  0  0  0  0  0  0  0  0  0  0  0
   11.1280   20.8910   30.6150 C   0  0  0  0  0  0  0  0  0  0  0  0
    9.9810   20.1930   30.2100 C   0  0  0  0  0  0  0  0  0  0  0  0
    8.9590   20.8640   29.4750 N   0  0  0  0  0  0  0  0  0  0  0  0
    9.1200   21.5910   28.3230 C   0  0  0  0  0  0  0  0  0  0  0  0
    7.8710   22.0050   27.9170 C   0  0  0  0  0  0  0  0  0  0  0  0
    7.5660   22.7600   26.6670 C   0  0  0  0  0  0  0  0  0  0  0  0
    7.4700   21.9150   25.4800 N   0  0  0  0  0  0  0  0  0  0  0  0
    6.2120   21.5950   24.9650 C   0  0  0  0  0  0  0  0  0  0  0  0
    5.2210   22.5910   24.9500 C   0  0  0  0  0  0  0  0  0  0  0  0
    3.9230   22.3200   24.5070 C   0  0  0  0  0  0  0  0  0  0  0  0
    3.5950   21.0350   24.1050 C   0  0  0  0  0  0  0  0  0  0  0  0
    2.3520   20.7710   23.6820 F   0  0  0  0  0  0  0  0  0  0  0  0
    4.5480   20.0280   24.1570 C   0  0  0  0  0  0  0  0  0  0  0  0
    4.2260   18.7760   23.7960 F   0  0  0  0  0  0  0  0  0  0  0  0
    5.8420   20.2970   24.5940 C   0  0  0  0  0  0  0  0  0  0  0  0
    6.9870   21.5430   28.9360 C   0  0  0  0  0  0  0  0  0  0  0  0
    5.5350   21.7540   29.0470 C   0  0  0  0  0  0  0  0  0  0  0  0
    5.0050   22.7130   29.9270 C   0  0  0  0  0  0  0  0  0  0  0  0
    3.6290   22.9360   30.0070 C   0  0  0  0  0  0  0  0  0  0  0  0
    2.7690   22.1800   29.2230 C   0  0  0  0  0  0  0  0  0  0  0  0
    1.4480   22.3890   29.3030 F   0  0  0  0  0  0  0  0  0  0  0  0
    3.2610   21.2070   28.3630 C   0  0  0  0  0  0  0  0  0  0  0  0
    4.6410   20.9930   28.2750 C   0  0  0  0  0  0  0  0  0  0  0  0
    7.6580   20.8180   29.8490 N   0  0  0  0  0  0  0  0  0  0  0  0
    9.8380   18.8420   30.5640 C   0  0  0  0  0  0  0  0  0  0  0  0
   10.8170   18.2000   31.3280 C   0  0  0  0  0  0  0  0  0  0  0  0
   12.9986   20.8009   31.7110 H   0  0  0  0  0  0  0  0  0  0  0  0
   11.2584   21.9457   30.3311 H   0  0  0  0  0  0  0  0  0  0  0  0
   10.0727   21.8043   27.8162 H   0  0  0  0  0  0  0  0  0  0  0  0
    6.6064   23.2808   26.8012 H   0  0  0  0  0  0  0  0  0  0  0  0
    8.4012   23.4560   26.4997 H   0  0  0  0  0  0  0  0  0  0  0  0
    8.2860   21.5720   25.0470 H   0  0  0  0  0  0  0  0  0  0  0  0
    5.4717   23.6053   25.2941 H   0  0  0  0  0  0  0  0  0  0  0  0
    3.1685   23.1199   24.4778 H   0  0  0  0  0  0  0  0  0  0  0  0
    6.5798   19.4829   24.6482 H   0  0  0  0  0  0  0  0  0  0  0  0
    5.6855   23.2977   30.5634 H   0  0  0  0  0  0  0  0  0  0  0  0
    3.2301   23.7043   30.6856 H   0  0  0  0  0  0  0  0  0  0  0  0
    2.5690   20.6072   27.7537 H   0  0  0  0  0  0  0  0  0  0  0  0
    5.0299   20.2212   27.5945 H   0  0  0  0  0  0  0  0  0  0  0  0
    8.9481   18.2839   30.2375 H   0  0  0  0  0  0  0  0  0  0  0  0
   10.6884   17.1456   31.6138 H   0  0  0  0  0  0  0  0  0  0  0  0
  1  2  2  0
  2  3  1  0
  2  4  1  0
  4  5  2  0
  5  6  1  0
  6  7  2  0
  7  8  1  0
  8  9  1  0
  9 10  2  0
 10 11  1  0
 11 12  1  0
 12 13  1  0
 13 14  2  0
 14 15  1  0
 15 16  2  0
 16 17  1  0
 16 18  1  0
 18 19  1  0
 18 20  2  0
 10 21  1  0
 21 22  1  0
 22 23  2  0
 23 24  1  0
 24 25  2  0
 25 26  1  0
 25 27  1  0
 27 28  2  0
 21 29  2  0
  7 30  1  0
 30 31  2  0
 31  4  1  0
 29  8  1  0
 20 13  1  0
 28 22  1  0
  5 32  1  0
  6 33  1  0
  9 34  1  0
 11 35  1  0
 11 36  1  0
 12 37  1  0
 14 38  1  0
 15 39  1  0
 20 40  1  0
 23 41  1  0
 24 42  1  0
 27 43  1  0
 28 44  1  0
 30 45  1  0
 31 46  1  0
M  CHG  1   3  -1
M  END
>  <meeko>  (19) 
{"is_sidechain": [false], "free_energy": -4.956, "intermolecular_energy": -7.219, "internal_energy": -1.704}

> <PREPARED_BY>
siam chowdhury
Computational and Medicinal Chemistry
[Dr. Alam's Research Team] www.alamresearch.org
Arkansas State University

$$$$
17sa23_out
     RDKit          3D

 46 49  0  0  0  0  0  0  0  0999 V2000
   14.4380   18.8910   33.5270 O   0  0  0  0  0  0  0  0  0  0  0  0
   14.2200   19.3690   32.4260 C   0  0  0  0  0  0  0  0  0  0  0  0
   15.1870   19.8680   31.6280 O   0  0  0  0  0  0  0  0  0  0  0  0
   12.8580   19.4820   31.8500 C   0  0  0  0  0  0  0  0  0  0  0  0
   12.3950   20.7440   31.4580 C   0  0  0  0  0  0  0  0  0  0  0  0
   11.1000   20.8940   30.9450 C   0  0  0  0  0  0  0  0  0  0  0  0
   10.2530   19.7820   30.8400 C   0  0  0  0  0  0  0  0  0  0  0  0
    8.9180   19.9430   30.3670 N   0  0  0  0  0  0  0  0  0  0  0  0
    8.3170   21.1180   29.9910 C   0  0  0  0  0  0  0  0  0  0  0  0
    7.0540   20.8110   29.5380 C   0  0  0  0  0  0  0  0  0  0  0  0
    6.0760   21.7780   28.9590 C   0  0  0  0  0  0  0  0  0  0  0  0
    5.7900   21.5470   27.5460 N   0  0  0  0  0  0  0  0  0  0  0  0
    6.8260   21.6230   26.6140 C   0  0  0  0  0  0  0  0  0  0  0  0
    6.9650   20.5830   25.6790 C   0  0  0  0  0  0  0  0  0  0  0  0
    8.0190   20.5650   24.7610 C   0  0  0  0  0  0  0  0  0  0  0  0
    8.9670   21.5760   24.7920 C   0  0  0  0  0  0  0  0  0  0  0  0
    9.9780   21.5620   23.9150 F   0  0  0  0  0  0  0  0  0  0  0  0
    8.8710   22.5860   25.7380 C   0  0  0  0  0  0  0  0  0  0  0  0
    9.8030   23.5520   25.7890 F   0  0  0  0  0  0  0  0  0  0  0  0
    7.8210   22.6070   26.6510 C   0  0  0  0  0  0  0  0  0  0  0  0
    6.9270   19.4050   29.7420 C   0  0  0  0  0  0  0  0  0  0  0  0
    5.7580   18.5490   29.4870 C   0  0  0  0  0  0  0  0  0  0  0  0
    5.9040   17.1670   29.2710 C   0  0  0  0  0  0  0  0  0  0  0  0
    4.7900   16.3500   29.0630 C   0  0  0  0  0  0  0  0  0  0  0  0
    3.5230   16.9140   29.0450 C   0  0  0  0  0  0  0  0  0  0  0  0
    2.4550   16.1310   28.8390 F   0  0  0  0  0  0  0  0  0  0  0  0
    3.3500   18.2800   29.2300 C   0  0  0  0  0  0  0  0  0  0  0  0
    4.4660   19.0960   29.4500 C   0  0  0  0  0  0  0  0  0  0  0  0
    8.0810   18.8900   30.2040 N   0  0  0  0  0  0  0  0  0  0  0  0
   10.7250   18.5190   31.2370 C   0  0  0  0  0  0  0  0  0  0  0  0
   12.0170   18.3720   31.7490 C   0  0  0  0  0  0  0  0  0  0  0  0
   13.0511   21.6217   31.5533 H   0  0  0  0  0  0  0  0  0  0  0  0
   10.7475   21.8854   30.6243 H   0  0  0  0  0  0  0  0  0  0  0  0
    8.7632   22.1221   30.0423 H   0  0  0  0  0  0  0  0  0  0  0  0
    5.1341   21.6985   29.5217 H   0  0  0  0  0  0  0  0  0  0  0  0
    6.5276   22.7780   29.0367 H   0  0  0  0  0  0  0  0  0  0  0  0
    4.8720   21.3400   27.2530 H   0  0  0  0  0  0  0  0  0  0  0  0
    6.2287   19.7658   25.6694 H   0  0  0  0  0  0  0  0  0  0  0  0
    8.0956   19.7554   24.0202 H   0  0  0  0  0  0  0  0  0  0  0  0
    7.7725   23.4035   27.4081 H   0  0  0  0  0  0  0  0  0  0  0  0
    6.9103   16.7227   29.2658 H   0  0  0  0  0  0  0  0  0  0  0  0
    4.9168   15.2675   28.9146 H   0  0  0  0  0  0  0  0  0  0  0  0
    2.3413   18.7181   29.2037 H   0  0  0  0  0  0  0  0  0  0  0  0
    4.3288   20.1777   29.5955 H   0  0  0  0  0  0  0  0  0  0  0  0
   10.0719   17.6388   31.1439 H   0  0  0  0  0  0  0  0  0  0  0  0
   12.3713   17.3821   32.0723 H   0  0  0  0  0  0  0  0  0  0  0  0
  1  2  2  0
  2  3  1  0
  2  4  1  0
  4  5  2  0
  5  6  1  0
  6  7  2  0
  7  8  1  0
  8  9  1  0
  9 10  2  0
 10 11  1  0
 11 12  1  0
 12 13  1  0
 13 14  2  0
 14 15  1  0
 15 16  2  0
 16 17  1  0
 16 18  1  0
 18 19  1  0
 18 20  2  0
 10 21  1  0
 21 22  1  0
 22 23  2  0
 23 24  1  0
 24 25  2  0
 25 26  1  0
 25 27  1  0
 27 28  2  0
 21 29  2  0
  7 30  1  0
 30 31  2  0
 31  4  1  0
 29  8  1  0
 20 13  1  0
 28 22  1  0
  5 32  1  0
  6 33  1  0
  9 34  1  0
 11 35  1  0
 11 36  1  0
 12 37  1  0
 14 38  1  0
 15 39  1  0
 20 40  1  0
 23 41  1  0
 24 42  1  0
 27 43  1  0
 28 44  1  0
 30 45  1  0
 31 46  1  0
M  CHG  1   3  -1
M  END
>  <meeko>  (20) 
{"is_sidechain": [false], "free_energy": -4.478, "intermolecular_energy": -7.381, "internal_energy": -0.896}

> <PREPARED_BY>
siam chowdhury
Computational and Medicinal Chemistry
[Dr. Alam's Research Team] www.alamresearch.org
Arkansas State University

$$$$
