
 OpenBabel09252602203D

 46 49  0  0  0  0  0  0  0  0999 V2000
    2.4979    0.4667   -0.9315 O   0  5  0  0  0  0  0  0  0  0  0  0
    1.7401   -1.4840   -0.0709 O   0  0  0  0  0  0  0  0  0  0  0  0
    2.3833   -0.4551    0.0481 C   0  0  0  0  0  0  0  0  0  0  0  0
    7.4395    5.5172   11.9556 F   0  0  0  0  0  0  0  0  0  0  0  0
    8.5871    5.5984    8.0119 C   0  0  0  0  0  0  0  0  0  0  0  0
    9.0252    6.6032    8.8790 C   0  0  0  0  0  0  0  0  0  0  0  0
    8.6242    6.5801   10.2056 C   0  0  0  0  0  0  0  0  0  0  0  0
    7.8064    5.5581   10.6647 C   0  0  0  0  0  0  0  0  0  0  0  0
    7.3664    4.5584    9.8024 C   0  0  0  0  0  0  0  0  0  0  0  0
    7.7204    4.5814    8.4485 C   0  0  0  0  0  0  0  0  0  0  0  0
    7.3729    3.5712    7.5486 N   0  0  0  0  0  0  0  0  0  0  0  0
    6.1405    2.8150    7.7581 C   0  0  0  0  0  0  0  0  0  0  0  0
    9.1628   -2.4177   10.6191 F   0  0  0  0  0  0  0  0  0  0  0  0
    8.0881    0.2634    8.4261 C   0  0  0  0  0  0  0  0  0  0  0  0
    8.8005   -0.4300    9.4084 C   0  0  0  0  0  0  0  0  0  0  0  0
    8.4765   -1.7508    9.6819 C   0  0  0  0  0  0  0  0  0  0  0  0
    7.4550   -2.3900    8.9905 C   0  0  0  0  0  0  0  0  0  0  0  0
    6.7336   -1.6910    8.0156 C   0  0  0  0  0  0  0  0  0  0  0  0
    7.0321   -0.3491    7.7288 C   0  0  0  0  0  0  0  0  0  0  0  0
    5.7629   -0.2250    5.6315 N   0  0  0  0  0  0  0  0  0  0  0  0
    6.2578    0.3910    6.7202 C   0  0  0  0  0  0  0  0  0  0  0  0
    5.8960    1.7713    6.7214 C   0  0  0  0  0  0  0  0  0  0  0  0
    5.2372    1.9612    5.5269 C   0  0  0  0  0  0  0  0  0  0  0  0
    5.1546    0.7423    4.9031 N   0  0  0  0  0  0  0  0  0  0  0  0
    3.7073   -1.1479    2.0293 C   0  0  0  0  0  0  0  0  0  0  0  0
    4.3946   -0.8644    3.2160 C   0  0  0  0  0  0  0  0  0  0  0  0
    4.5001    0.4591    3.6682 C   0  0  0  0  0  0  0  0  0  0  0  0
    3.9245    1.4923    2.9093 C   0  0  0  0  0  0  0  0  0  0  0  0
    3.2388    1.2070    1.7252 C   0  0  0  0  0  0  0  0  0  0  0  0
    3.1382   -0.1123    1.2784 C   0  0  0  0  0  0  0  0  0  0  0  0
    9.0428    7.5402   11.0404 F   0  0  0  0  0  0  0  0  0  0  0  0
    8.9067    5.6032    7.0306 H   0  0  0  0  0  0  0  0  0  0  0  0
    9.6417    7.3556    8.5345 H   0  0  0  0  0  0  0  0  0  0  0  0
    6.7746    3.7942   10.1640 H   0  0  0  0  0  0  0  0  0  0  0  0
    7.9537    3.3703    6.7795 H   0  0  0  0  0  0  0  0  0  0  0  0
    5.3182    3.4996    7.7493 H   0  0  0  0  0  0  0  0  0  0  0  0
    6.2390    2.3086    8.6955 H   0  0  0  0  0  0  0  0  0  0  0  0
    8.3411    1.2401    8.2094 H   0  0  0  0  0  0  0  0  0  0  0  0
    9.5615    0.0368    9.9260 H   0  0  0  0  0  0  0  0  0  0  0  0
    7.2291   -3.3761    9.1947 H   0  0  0  0  0  0  0  0  0  0  0  0
    5.9748   -2.1664    7.5026 H   0  0  0  0  0  0  0  0  0  0  0  0
    4.8723    2.8569    5.1670 H   0  0  0  0  0  0  0  0  0  0  0  0
    3.6199   -2.1243    1.7068 H   0  0  0  0  0  0  0  0  0  0  0  0
    4.8239   -1.6302    3.7584 H   0  0  0  0  0  0  0  0  0  0  0  0
    4.0087    2.4699    3.2289 H   0  0  0  0  0  0  0  0  0  0  0  0
    2.8072    1.9706    1.1815 H   0  0  0  0  0  0  0  0  0  0  0  0
  3  1  1  0  0  0  0
  3  2  2  0  0  0  0
  5  6  2  0  0  0  0
  5 32  1  0  0  0  0
  6  7  1  0  0  0  0
  6 33  1  0  0  0  0
  7  8  2  0  0  0  0
  7 31  1  0  0  0  0
  8  4  1  0  0  0  0
  8  9  1  0  0  0  0
  9 10  2  0  0  0  0
  9 34  1  0  0  0  0
 10  5  1  0  0  0  0
 11 10  1  0  0  0  0
 11 35  1  0  0  0  0
 12 11  1  0  0  0  0
 12 36  1  0  0  0  0
 12 37  1  0  0  0  0
 14 15  2  0  0  0  0
 14 38  1  0  0  0  0
 15 16  1  0  0  0  0
 15 39  1  0  0  0  0
 16 13  1  0  0  0  0
 16 17  2  0  0  0  0
 17 18  1  0  0  0  0
 17 40  1  0  0  0  0
 18 19  2  0  0  0  0
 18 41  1  0  0  0  0
 19 14  1  0  0  0  0
 20 24  1  0  0  0  0
 21 19  1  0  0  0  0
 21 20  2  0  0  0  0
 22 12  1  0  0  0  0
 22 21  1  0  0  0  0
 23 22  2  0  0  0  0
 23 24  1  0  0  0  0
 23 42  1  0  0  0  0
 25 26  2  0  0  0  0
 25 43  1  0  0  0  0
 26 27  1  0  0  0  0
 26 44  1  0  0  0  0
 27 24  1  0  0  0  0
 27 28  2  0  0  0  0
 28 29  1  0  0  0  0
 28 45  1  0  0  0  0
 29 30  2  0  0  0  0
 29 46  1  0  0  0  0
 30  3  1  0  0  0  0
 30 25  1  0  0  0  0
M  CHG  1   1  -1
M  END
>  <Energy>
74.3894

> <PREPARED_BY>
siam chowdhury
Computational and Medicinal Chemistry
[Dr. Alam's Research Team] www.alamresearch.org
Arkansas State University

$$$$
