# siam chowdhury
# Computational and Medicinal Chemistry
# [Dr. Alam's Research Team] www.alamresearch.org
# Arkansas State University
# 25sa23 best docked pose (7L00 FabK)
@<TRIPOS>MOLECULE
25sa23_out
 49 52 0 0 0
SMALL
GASTEIGER

@<TRIPOS>ATOM
      1 O          16.1700   13.3630   35.4270 O.co2   1  UNL1       -0.5446
      2 C          15.4260   14.2860   35.1420 C.2     1  UNL1        0.0717
      3 O          14.5120   14.2130   34.1530 O.co2   1  UNL1       -0.5446
      4 C          15.4290   15.5750   35.8840 C.ar    1  UNL1       -0.0026
      5 C          16.0700   15.7510   37.1180 C.ar    1  UNL1       -0.0509
      6 C          15.9730   16.9760   37.7970 C.ar    1  UNL1       -0.0357
      7 C          15.2110   18.0220   37.2590 C.ar    1  UNL1        0.0654
      8 N          15.0270   19.2290   37.9980 N.ar    1  UNL1       -0.2390
      9 C          15.8530   20.3230   37.9940 C.ar    1  UNL1        0.0365
     10 C          15.2410   21.3060   38.7370 C.ar    1  UNL1        0.0153
     11 C          15.7310   22.7040   38.9040 C.3     1  UNL1        0.0379
     12 N          15.9100   23.4300   37.6490 N.pl3   1  UNL1       -0.3395
     13 C          14.7760   23.8290   36.9350 C.ar    1  UNL1        0.0306
     14 C          14.6270   23.6300   35.5600 C.ar    1  UNL1       -0.0056
     15 C          13.4470   23.9860   34.9150 C.ar    1  UNL1        0.1257
     16 F          13.3420   23.8000   33.5940 F       1  UNL1       -0.2054
     17 C          12.3780   24.5200   35.6160 C.ar    1  UNL1       -0.0147
     18 C          12.4750   24.6890   37.0000 C.ar    1  UNL1        0.0593
     19 C          11.3280   25.2510   37.7980 C.3     1  UNL1        0.4176
     20 F          10.1530   25.2860   37.1100 F       1  UNL1       -0.1659
     21 F          11.0800   24.5370   38.9290 F       1  UNL1       -0.1659
     22 F          11.5610   26.5290   38.2050 F       1  UNL1       -0.1659
     23 C          13.6710   24.3210   37.6470 C.ar    1  UNL1       -0.0290
     24 C          14.0610   20.6910   39.2530 C.ar    1  UNL1        0.0978
     25 C          13.0590   21.2720   40.1600 C.ar    1  UNL1        0.0026
     26 C          11.7600   21.5670   39.7080 C.ar    1  UNL1       -0.0498
     27 C          10.7920   22.0780   40.5760 C.ar    1  UNL1       -0.0258
     28 C          11.1250   22.3240   41.8990 C.ar    1  UNL1        0.1234
     29 F          10.2000   22.8190   42.7320 F       1  UNL1       -0.2055
     30 C          12.4090   22.0660   42.3700 C.ar    1  UNL1       -0.0258
     31 C          13.3730   21.5410   41.5020 C.ar    1  UNL1       -0.0498
     32 N          13.9280   19.4430   38.7650 N.ar    1  UNL1       -0.1661
     33 C          14.5890   17.8480   36.0140 C.ar    1  UNL1       -0.0357
     34 C          14.6960   16.6310   35.3350 C.ar    1  UNL1       -0.0509
     35 H          16.6512   14.9262   37.5561 H       1  UNL1        0.0625
     36 H          16.4967   17.1153   38.7543 H       1  UNL1        0.0639
     37 H          16.8271   20.4007   37.4890 H       1  UNL1        0.0834
     38 H          15.0034   23.2533   39.5195 H       1  UNL1        0.0512
     39 H          16.7230   22.6370   39.3746 H       1  UNL1        0.0512
     40 H          16.8120   23.6350   37.3120 H       1  UNL1        0.1464
     41 H          15.4513   23.1873   34.9816 H       1  UNL1        0.0665
     42 H          11.4583   24.8093   35.0864 H       1  UNL1        0.0652
     43 H          13.7408   24.4220   38.7401 H       1  UNL1        0.0641
     44 H          11.5020   21.3923   38.6530 H       1  UNL1        0.0625
     45 H           9.7742   22.2834   40.2128 H       1  UNL1        0.0646
     46 H          12.6648   22.2738   43.4195 H       1  UNL1        0.0646
     47 H          14.3875   21.3369   41.8749 H       1  UNL1        0.0625
     48 H          14.0139   18.6737   35.5696 H       1  UNL1        0.0639
     49 H          14.1998   16.5033   34.3616 H       1  UNL1        0.0625
@<TRIPOS>UNITY_ATOM_ATTR
3 1
charge -1
@<TRIPOS>BOND
     1     1     2   ar
     2     2     3   ar
     3     2     4    1
     4     4     5   ar
     5     5     6   ar
     6     6     7   ar
     7     7     8    1
     8     8     9   ar
     9     9    10   ar
    10    10    11    1
    11    11    12    1
    12    12    13    1
    13    13    14   ar
    14    14    15   ar
    15    15    16    1
    16    15    17   ar
    17    17    18   ar
    18    18    19    1
    19    19    20    1
    20    19    21    1
    21    19    22    1
    22    18    23   ar
    23    10    24   ar
    24    24    25    1
    25    25    26   ar
    26    26    27   ar
    27    27    28   ar
    28    28    29    1
    29    28    30   ar
    30    30    31   ar
    31    24    32   ar
    32     7    33   ar
    33    33    34   ar
    34    34     4   ar
    35    32     8   ar
    36    23    13   ar
    37    31    25   ar
    38     5    35    1
    39     6    36    1
    40     9    37    1
    41    11    38    1
    42    11    39    1
    43    12    40    1
    44    14    41    1
    45    17    42    1
    46    23    43    1
    47    26    44    1
    48    27    45    1
    49    30    46    1
    50    31    47    1
    51    33    48    1
    52    34    49    1
