
 OpenBabel09272610543D

 49 52  0  0  0  0  0  0  0  0999 V2000
    2.5334   -0.8381    1.5311 O   0  5  0  0  0  0  0  0  0  0  0  0
    1.3804   -0.1021   -0.2642 O   0  0  0  0  0  0  0  0  0  0  0  0
    2.2447    0.0712    0.5776 C   0  0  0  0  0  0  0  0  0  0  0  0
   10.2361   11.3546   -5.9917 F   0  0  0  0  0  0  0  0  0  0  0  0
   11.1671    9.7150   -4.9088 F   0  0  0  0  0  0  0  0  0  0  0  0
    9.5049    9.3248   -6.2552 F   0  0  0  0  0  0  0  0  0  0  0  0
    9.9647   10.2016   -5.3203 C   0  0  0  0  0  0  0  0  0  0  0  0
    7.2064   10.6742   -2.0513 C   0  0  0  0  0  0  0  0  0  0  0  0
    7.5915   11.7737   -2.8111 C   0  0  0  0  0  0  0  0  0  0  0  0
    8.4694   11.6413   -3.8754 C   0  0  0  0  0  0  0  0  0  0  0  0
    8.9952   10.3832   -4.1821 C   0  0  0  0  0  0  0  0  0  0  0  0
    8.6052    9.2749   -3.4051 C   0  0  0  0  0  0  0  0  0  0  0  0
    7.6760    9.3948   -2.3596 C   0  0  0  0  0  0  0  0  0  0  0  0
    7.3777    8.2644   -1.5936 N   0  0  0  0  0  0  0  0  0  0  0  0
    6.1106    8.2218   -0.8668 C   0  0  0  0  0  0  0  0  0  0  0  0
    8.8270   10.1301    4.9128 F   0  0  0  0  0  0  0  0  0  0  0  0
    7.9525    8.4446    1.8243 C   0  0  0  0  0  0  0  0  0  0  0  0
    8.5883    9.3098    2.7183 C   0  0  0  0  0  0  0  0  0  0  0  0
    8.2139    9.3064    4.0530 C   0  0  0  0  0  0  0  0  0  0  0  0
    7.2138    8.4526    4.5092 C   0  0  0  0  0  0  0  0  0  0  0  0
    6.5681    7.5969    3.6088 C   0  0  0  0  0  0  0  0  0  0  0  0
    6.9198    7.5901    2.2496 C   0  0  0  0  0  0  0  0  0  0  0  0
    5.7581    5.5042    1.6610 N   0  0  0  0  0  0  0  0  0  0  0  0
    6.2224    6.7137    1.2952 C   0  0  0  0  0  0  0  0  0  0  0  0
    5.9037    6.9786   -0.0704 C   0  0  0  0  0  0  0  0  0  0  0  0
    5.3112    5.8231   -0.5242 C   0  0  0  0  0  0  0  0  0  0  0  0
    5.2036    4.9688    0.5442 N   0  0  0  0  0  0  0  0  0  0  0  0
    3.6504    1.8086    1.7913 C   0  0  0  0  0  0  0  0  0  0  0  0
    4.3857    3.0039    1.7604 C   0  0  0  0  0  0  0  0  0  0  0  0
    4.5466    3.7028    0.5557 C   0  0  0  0  0  0  0  0  0  0  0  0
    4.0078    3.1687   -0.6244 C   0  0  0  0  0  0  0  0  0  0  0  0
    3.2854    1.9733   -0.5929 C   0  0  0  0  0  0  0  0  0  0  0  0
    3.0963    1.2907    0.6125 C   0  0  0  0  0  0  0  0  0  0  0  0
    7.1092   12.9840   -2.5019 F   0  0  0  0  0  0  0  0  0  0  0  0
    6.5673   10.8047   -1.2516 H   0  0  0  0  0  0  0  0  0  0  0  0
    8.7329   12.4658   -4.4374 H   0  0  0  0  0  0  0  0  0  0  0  0
    9.0136    8.3496   -3.6099 H   0  0  0  0  0  0  0  0  0  0  0  0
    8.0095    7.5109   -1.5446 H   0  0  0  0  0  0  0  0  0  0  0  0
    5.3139    8.3020   -1.5766 H   0  0  0  0  0  0  0  0  0  0  0  0
    6.1286    9.0336   -0.1700 H   0  0  0  0  0  0  0  0  0  0  0  0
    8.2457    8.4324    0.8349 H   0  0  0  0  0  0  0  0  0  0  0  0
    9.3305    9.9461    2.3877 H   0  0  0  0  0  0  0  0  0  0  0  0
    6.9495    8.4503    5.5068 H   0  0  0  0  0  0  0  0  0  0  0  0
    5.8260    6.9647    3.9475 H   0  0  0  0  0  0  0  0  0  0  0  0
    5.0040    5.6334   -1.4910 H   0  0  0  0  0  0  0  0  0  0  0  0
    3.5174    1.3094    2.6848 H   0  0  0  0  0  0  0  0  0  0  0  0
    4.8092    3.3696    2.6276 H   0  0  0  0  0  0  0  0  0  0  0  0
    4.1456    3.6616   -1.5205 H   0  0  0  0  0  0  0  0  0  0  0  0
    2.8886    1.5913   -1.4656 H   0  0  0  0  0  0  0  0  0  0  0  0
  3  1  1  0  0  0  0
  3  2  2  0  0  0  0
  7  4  1  0  0  0  0
  7  5  1  0  0  0  0
  7  6  1  0  0  0  0
  8  9  2  0  0  0  0
  8 35  1  0  0  0  0
  9 10  1  0  0  0  0
  9 34  1  0  0  0  0
 10 11  2  0  0  0  0
 10 36  1  0  0  0  0
 11  7  1  0  0  0  0
 11 12  1  0  0  0  0
 12 13  2  0  0  0  0
 12 37  1  0  0  0  0
 13  8  1  0  0  0  0
 14 13  1  0  0  0  0
 14 38  1  0  0  0  0
 15 14  1  0  0  0  0
 15 39  1  0  0  0  0
 15 40  1  0  0  0  0
 17 18  2  0  0  0  0
 17 41  1  0  0  0  0
 18 19  1  0  0  0  0
 18 42  1  0  0  0  0
 19 16  1  0  0  0  0
 19 20  2  0  0  0  0
 20 21  1  0  0  0  0
 20 43  1  0  0  0  0
 21 22  2  0  0  0  0
 21 44  1  0  0  0  0
 22 17  1  0  0  0  0
 23 27  1  0  0  0  0
 24 22  1  0  0  0  0
 24 23  2  0  0  0  0
 25 15  1  0  0  0  0
 25 24  1  0  0  0  0
 26 25  2  0  0  0  0
 26 27  1  0  0  0  0
 26 45  1  0  0  0  0
 28 33  2  0  0  0  0
 28 46  1  0  0  0  0
 29 28  1  0  0  0  0
 29 47  1  0  0  0  0
 30 27  1  0  0  0  0
 30 29  2  0  0  0  0
 31 30  1  0  0  0  0
 31 48  1  0  0  0  0
 32 31  2  0  0  0  0
 32 49  1  0  0  0  0
 33  3  1  0  0  0  0
 33 32  1  0  0  0  0
M  CHG  1   1  -1
M  END
>  <Energy>
82.8536

> <PREPARED_BY>
siam chowdhury
Computational and Medicinal Chemistry
[Dr. Alam's Research Team] www.alamresearch.org
Arkansas State University

$$$$
