25sa23_out
     RDKit          3D

 49 52  0  0  0  0  0  0  0  0999 V2000
   16.1700   13.3630   35.4270 O   0  0  0  0  0  0  0  0  0  0  0  0
   15.4260   14.2860   35.1420 C   0  0  0  0  0  0  0  0  0  0  0  0
   14.5120   14.2130   34.1530 O   0  0  0  0  0  0  0  0  0  0  0  0
   15.4290   15.5750   35.8840 C   0  0  0  0  0  0  0  0  0  0  0  0
   16.0700   15.7510   37.1180 C   0  0  0  0  0  0  0  0  0  0  0  0
   15.9730   16.9760   37.7970 C   0  0  0  0  0  0  0  0  0  0  0  0
   15.2110   18.0220   37.2590 C   0  0  0  0  0  0  0  0  0  0  0  0
   15.0270   19.2290   37.9980 N   0  0  0  0  0  0  0  0  0  0  0  0
   15.8530   20.3230   37.9940 C   0  0  0  0  0  0  0  0  0  0  0  0
   15.2410   21.3060   38.7370 C   0  0  0  0  0  0  0  0  0  0  0  0
   15.7310   22.7040   38.9040 C   0  0  0  0  0  0  0  0  0  0  0  0
   15.9100   23.4300   37.6490 N   0  0  0  0  0  0  0  0  0  0  0  0
   14.7760   23.8290   36.9350 C   0  0  0  0  0  0  0  0  0  0  0  0
   14.6270   23.6300   35.5600 C   0  0  0  0  0  0  0  0  0  0  0  0
   13.4470   23.9860   34.9150 C   0  0  0  0  0  0  0  0  0  0  0  0
   13.3420   23.8000   33.5940 F   0  0  0  0  0  0  0  0  0  0  0  0
   12.3780   24.5200   35.6160 C   0  0  0  0  0  0  0  0  0  0  0  0
   12.4750   24.6890   37.0000 C   0  0  0  0  0  0  0  0  0  0  0  0
   11.3280   25.2510   37.7980 C   0  0  0  0  0  0  0  0  0  0  0  0
   10.1530   25.2860   37.1100 F   0  0  0  0  0  0  0  0  0  0  0  0
   11.0800   24.5370   38.9290 F   0  0  0  0  0  0  0  0  0  0  0  0
   11.5610   26.5290   38.2050 F   0  0  0  0  0  0  0  0  0  0  0  0
   13.6710   24.3210   37.6470 C   0  0  0  0  0  0  0  0  0  0  0  0
   14.0610   20.6910   39.2530 C   0  0  0  0  0  0  0  0  0  0  0  0
   13.0590   21.2720   40.1600 C   0  0  0  0  0  0  0  0  0  0  0  0
   11.7600   21.5670   39.7080 C   0  0  0  0  0  0  0  0  0  0  0  0
   10.7920   22.0780   40.5760 C   0  0  0  0  0  0  0  0  0  0  0  0
   11.1250   22.3240   41.8990 C   0  0  0  0  0  0  0  0  0  0  0  0
   10.2000   22.8190   42.7320 F   0  0  0  0  0  0  0  0  0  0  0  0
   12.4090   22.0660   42.3700 C   0  0  0  0  0  0  0  0  0  0  0  0
   13.3730   21.5410   41.5020 C   0  0  0  0  0  0  0  0  0  0  0  0
   13.9280   19.4430   38.7650 N   0  0  0  0  0  0  0  0  0  0  0  0
   14.5890   17.8480   36.0140 C   0  0  0  0  0  0  0  0  0  0  0  0
   14.6960   16.6310   35.3350 C   0  0  0  0  0  0  0  0  0  0  0  0
   16.6512   14.9262   37.5561 H   0  0  0  0  0  0  0  0  0  0  0  0
   16.4967   17.1153   38.7543 H   0  0  0  0  0  0  0  0  0  0  0  0
   16.8271   20.4007   37.4890 H   0  0  0  0  0  0  0  0  0  0  0  0
   15.0034   23.2533   39.5195 H   0  0  0  0  0  0  0  0  0  0  0  0
   16.7230   22.6370   39.3746 H   0  0  0  0  0  0  0  0  0  0  0  0
   16.8120   23.6350   37.3120 H   0  0  0  0  0  0  0  0  0  0  0  0
   15.4513   23.1873   34.9816 H   0  0  0  0  0  0  0  0  0  0  0  0
   11.4583   24.8093   35.0864 H   0  0  0  0  0  0  0  0  0  0  0  0
   13.7408   24.4220   38.7401 H   0  0  0  0  0  0  0  0  0  0  0  0
   11.5020   21.3923   38.6530 H   0  0  0  0  0  0  0  0  0  0  0  0
    9.7742   22.2834   40.2128 H   0  0  0  0  0  0  0  0  0  0  0  0
   12.6648   22.2738   43.4195 H   0  0  0  0  0  0  0  0  0  0  0  0
   14.3875   21.3369   41.8749 H   0  0  0  0  0  0  0  0  0  0  0  0
   14.0139   18.6737   35.5696 H   0  0  0  0  0  0  0  0  0  0  0  0
   14.1998   16.5033   34.3616 H   0  0  0  0  0  0  0  0  0  0  0  0
  1  2  2  0
  2  3  1  0
  2  4  1  0
  4  5  2  0
  5  6  1  0
  6  7  2  0
  7  8  1  0
  8  9  1  0
  9 10  2  0
 10 11  1  0
 11 12  1  0
 12 13  1  0
 13 14  2  0
 14 15  1  0
 15 16  1  0
 15 17  2  0
 17 18  1  0
 18 19  1  0
 19 20  1  0
 19 21  1  0
 19 22  1  0
 18 23  2  0
 10 24  1  0
 24 25  1  0
 25 26  2  0
 26 27  1  0
 27 28  2  0
 28 29  1  0
 28 30  1  0
 30 31  2  0
 24 32  2  0
  7 33  1  0
 33 34  2  0
 34  4  1  0
 32  8  1  0
 23 13  1  0
 31 25  1  0
  5 35  1  0
  6 36  1  0
  9 37  1  0
 11 38  1  0
 11 39  1  0
 12 40  1  0
 14 41  1  0
 17 42  1  0
 23 43  1  0
 26 44  1  0
 27 45  1  0
 30 46  1  0
 31 47  1  0
 33 48  1  0
 34 49  1  0
M  CHG  1   3  -1
M  END
>  <meeko>  (1) 
{"is_sidechain": [false], "free_energy": -9.209, "intermolecular_energy": -12.978, "internal_energy": -1.777}

> <PREPARED_BY>
siam chowdhury
Computational and Medicinal Chemistry
[Dr. Alam's Research Team] www.alamresearch.org
Arkansas State University

$$$$
25sa23_out
     RDKit          3D

 49 52  0  0  0  0  0  0  0  0999 V2000
   16.1210   13.3680   35.5760 O   0  0  0  0  0  0  0  0  0  0  0  0
   15.4380   14.3100   35.2120 C   0  0  0  0  0  0  0  0  0  0  0  0
   14.6060   14.2480   34.1530 O   0  0  0  0  0  0  0  0  0  0  0  0
   15.4290   15.6160   35.9260 C   0  0  0  0  0  0  0  0  0  0  0  0
   16.1030   15.8360   37.1350 C   0  0  0  0  0  0  0  0  0  0  0  0
   15.9940   17.0730   37.7890 C   0  0  0  0  0  0  0  0  0  0  0  0
   15.1880   18.0860   37.2540 C   0  0  0  0  0  0  0  0  0  0  0  0
   14.9940   19.3030   37.9720 N   0  0  0  0  0  0  0  0  0  0  0  0
   15.7980   20.4140   37.9290 C   0  0  0  0  0  0  0  0  0  0  0  0
   15.1810   21.3990   38.6650 C   0  0  0  0  0  0  0  0  0  0  0  0
   15.6460   22.8100   38.7930 C   0  0  0  0  0  0  0  0  0  0  0  0
   15.7600   23.5220   37.5220 N   0  0  0  0  0  0  0  0  0  0  0  0
   14.5910   23.8480   36.8280 C   0  0  0  0  0  0  0  0  0  0  0  0
   13.6090   24.6990   37.3390 C   0  0  0  0  0  0  0  0  0  0  0  0
   12.4980   25.0410   36.5750 C   0  0  0  0  0  0  0  0  0  0  0  0
   11.5640   25.8440   37.1000 F   0  0  0  0  0  0  0  0  0  0  0  0
   12.3450   24.5740   35.2790 C   0  0  0  0  0  0  0  0  0  0  0  0
   13.3320   23.7580   34.7200 C   0  0  0  0  0  0  0  0  0  0  0  0
   13.2100   23.2440   33.3090 C   0  0  0  0  0  0  0  0  0  0  0  0
   12.1160   22.4580   33.1100 F   0  0  0  0  0  0  0  0  0  0  0  0
   13.1240   24.2470   32.3940 F   0  0  0  0  0  0  0  0  0  0  0  0
   14.2830   22.4910   32.9390 F   0  0  0  0  0  0  0  0  0  0  0  0
   14.4570   23.4200   35.4980 C   0  0  0  0  0  0  0  0  0  0  0  0
   14.0250   20.7720   39.2170 C   0  0  0  0  0  0  0  0  0  0  0  0
   13.0290   21.3520   40.1330 C   0  0  0  0  0  0  0  0  0  0  0  0
   13.0900   21.1040   41.5160 C   0  0  0  0  0  0  0  0  0  0  0  0
   12.1740   21.6860   42.3950 C   0  0  0  0  0  0  0  0  0  0  0  0
   11.1710   22.5010   41.8930 C   0  0  0  0  0  0  0  0  0  0  0  0
   10.2880   23.0560   42.7330 F   0  0  0  0  0  0  0  0  0  0  0  0
   11.0700   22.7450   40.5270 C   0  0  0  0  0  0  0  0  0  0  0  0
   11.9980   22.1710   39.6490 C   0  0  0  0  0  0  0  0  0  0  0  0
   13.9070   19.5120   38.7570 N   0  0  0  0  0  0  0  0  0  0  0  0
   14.5320   17.8680   36.0330 C   0  0  0  0  0  0  0  0  0  0  0  0
   14.6510   16.6390   35.3770 C   0  0  0  0  0  0  0  0  0  0  0  0
   16.7192   15.0368   37.5726 H   0  0  0  0  0  0  0  0  0  0  0  0
   16.5438   17.2477   38.7256 H   0  0  0  0  0  0  0  0  0  0  0  0
   16.7598   20.5012   37.4024 H   0  0  0  0  0  0  0  0  0  0  0  0
   14.9309   23.3523   39.4290 H   0  0  0  0  0  0  0  0  0  0  0  0
   16.6570   22.7711   39.2247 H   0  0  0  0  0  0  0  0  0  0  0  0
   16.6420   23.7670   37.1630 H   0  0  0  0  0  0  0  0  0  0  0  0
   13.7151   25.1033   38.3565 H   0  0  0  0  0  0  0  0  0  0  0  0
   11.4529   24.8438   34.6947 H   0  0  0  0  0  0  0  0  0  0  0  0
   15.2515   22.8043   35.0512 H   0  0  0  0  0  0  0  0  0  0  0  0
   13.8726   20.4402   41.9122 H   0  0  0  0  0  0  0  0  0  0  0  0
   12.2477   21.4994   43.4765 H   0  0  0  0  0  0  0  0  0  0  0  0
   10.2649   23.3859   40.1383 H   0  0  0  0  0  0  0  0  0  0  0  0
   11.9176   22.3643   38.5691 H   0  0  0  0  0  0  0  0  0  0  0  0
   13.9210   18.6680   35.5896 H   0  0  0  0  0  0  0  0  0  0  0  0
   14.1289   16.4762   34.4226 H   0  0  0  0  0  0  0  0  0  0  0  0
  1  2  2  0
  2  3  1  0
  2  4  1  0
  4  5  2  0
  5  6  1  0
  6  7  2  0
  7  8  1  0
  8  9  1  0
  9 10  2  0
 10 11  1  0
 11 12  1  0
 12 13  1  0
 13 14  2  0
 14 15  1  0
 15 16  1  0
 15 17  2  0
 17 18  1  0
 18 19  1  0
 19 20  1  0
 19 21  1  0
 19 22  1  0
 18 23  2  0
 10 24  1  0
 24 25  1  0
 25 26  2  0
 26 27  1  0
 27 28  2  0
 28 29  1  0
 28 30  1  0
 30 31  2  0
 24 32  2  0
  7 33  1  0
 33 34  2  0
 34  4  1  0
 32  8  1  0
 23 13  1  0
 31 25  1  0
  5 35  1  0
  6 36  1  0
  9 37  1  0
 11 38  1  0
 11 39  1  0
 12 40  1  0
 14 41  1  0
 17 42  1  0
 23 43  1  0
 26 44  1  0
 27 45  1  0
 30 46  1  0
 31 47  1  0
 33 48  1  0
 34 49  1  0
M  CHG  1   3  -1
M  END
>  <meeko>  (2) 
{"is_sidechain": [false], "free_energy": -8.931, "intermolecular_energy": -12.629, "internal_energy": -1.734}

> <PREPARED_BY>
siam chowdhury
Computational and Medicinal Chemistry
[Dr. Alam's Research Team] www.alamresearch.org
Arkansas State University

$$$$
25sa23_out
     RDKit          3D

 49 52  0  0  0  0  0  0  0  0999 V2000
    9.3120   14.4510   31.5710 O   0  0  0  0  0  0  0  0  0  0  0  0
    9.3160   14.7880   32.7430 C   0  0  0  0  0  0  0  0  0  0  0  0
    8.2150   14.7500   33.5210 O   0  0  0  0  0  0  0  0  0  0  0  0
   10.5480   15.2410   33.4420 C   0  0  0  0  0  0  0  0  0  0  0  0
   10.9700   14.7220   34.6730 C   0  0  0  0  0  0  0  0  0  0  0  0
   12.1060   15.2460   35.3090 C   0  0  0  0  0  0  0  0  0  0  0  0
   12.8110   16.3110   34.7320 C   0  0  0  0  0  0  0  0  0  0  0  0
   13.9010   16.9110   35.4290 N   0  0  0  0  0  0  0  0  0  0  0  0
   14.2630   18.2340   35.3940 C   0  0  0  0  0  0  0  0  0  0  0  0
   15.2800   18.4070   36.3050 C   0  0  0  0  0  0  0  0  0  0  0  0
   15.9000   19.7100   36.6800 C   0  0  0  0  0  0  0  0  0  0  0  0
   14.9900   20.8510   36.6030 N   0  0  0  0  0  0  0  0  0  0  0  0
   14.6180   21.4950   37.7870 C   0  0  0  0  0  0  0  0  0  0  0  0
   14.6400   22.8840   37.9420 C   0  0  0  0  0  0  0  0  0  0  0  0
   14.1940   23.4730   39.1200 C   0  0  0  0  0  0  0  0  0  0  0  0
   14.2450   24.8050   39.2470 F   0  0  0  0  0  0  0  0  0  0  0  0
   13.6910   22.7080   40.1610 C   0  0  0  0  0  0  0  0  0  0  0  0
   13.6110   21.3200   40.0210 C   0  0  0  0  0  0  0  0  0  0  0  0
   13.0550   20.4570   41.1230 C   0  0  0  0  0  0  0  0  0  0  0  0
   13.1660   21.0170   42.3600 F   0  0  0  0  0  0  0  0  0  0  0  0
   11.7340   20.1800   40.9530 F   0  0  0  0  0  0  0  0  0  0  0  0
   13.6840   19.2520   41.2010 F   0  0  0  0  0  0  0  0  0  0  0  0
   14.0600   20.7310   38.8230 C   0  0  0  0  0  0  0  0  0  0  0  0
   15.5540   17.0980   36.8000 C   0  0  0  0  0  0  0  0  0  0  0  0
   16.5900   16.6900   37.7620 C   0  0  0  0  0  0  0  0  0  0  0  0
   16.3880   16.8360   39.1460 C   0  0  0  0  0  0  0  0  0  0  0  0
   17.3510   16.4110   40.0650 C   0  0  0  0  0  0  0  0  0  0  0  0
   18.5370   15.8600   39.6040 C   0  0  0  0  0  0  0  0  0  0  0  0
   19.4640   15.4580   40.4830 F   0  0  0  0  0  0  0  0  0  0  0  0
   18.7760   15.7260   38.2400 C   0  0  0  0  0  0  0  0  0  0  0  0
   17.8040   16.1400   37.3210 C   0  0  0  0  0  0  0  0  0  0  0  0
   14.6840   16.2080   36.2850 N   0  0  0  0  0  0  0  0  0  0  0  0
   12.3970   16.8130   33.4890 C   0  0  0  0  0  0  0  0  0  0  0  0
   11.2710   16.2830   32.8520 C   0  0  0  0  0  0  0  0  0  0  0  0
   10.4089   13.9008   35.1428 H   0  0  0  0  0  0  0  0  0  0  0  0
   12.4445   14.8190   36.2645 H   0  0  0  0  0  0  0  0  0  0  0  0
   13.8215   19.0132   34.7552 H   0  0  0  0  0  0  0  0  0  0  0  0
   16.2685   19.6319   37.7135 H   0  0  0  0  0  0  0  0  0  0  0  0
   16.7044   19.8978   35.9536 H   0  0  0  0  0  0  0  0  0  0  0  0
   14.6460   21.1600   35.7340 H   0  0  0  0  0  0  0  0  0  0  0  0
   15.0138   23.5174   37.1240 H   0  0  0  0  0  0  0  0  0  0  0  0
   13.3570   23.1906   41.0913 H   0  0  0  0  0  0  0  0  0  0  0  0
   13.9707   19.6420   38.6961 H   0  0  0  0  0  0  0  0  0  0  0  0
   15.4562   17.2925   39.5113 H   0  0  0  0  0  0  0  0  0  0  0  0
   17.1697   16.5127   41.1452 H   0  0  0  0  0  0  0  0  0  0  0  0
   19.7245   15.2967   37.8850 H   0  0  0  0  0  0  0  0  0  0  0  0
   17.9936   16.0332   36.2427 H   0  0  0  0  0  0  0  0  0  0  0  0
   12.9616   17.6282   33.0129 H   0  0  0  0  0  0  0  0  0  0  0  0
   10.9515   16.6881   31.8805 H   0  0  0  0  0  0  0  0  0  0  0  0
  1  2  2  0
  2  3  1  0
  2  4  1  0
  4  5  2  0
  5  6  1  0
  6  7  2  0
  7  8  1  0
  8  9  1  0
  9 10  2  0
 10 11  1  0
 11 12  1  0
 12 13  1  0
 13 14  2  0
 14 15  1  0
 15 16  1  0
 15 17  2  0
 17 18  1  0
 18 19  1  0
 19 20  1  0
 19 21  1  0
 19 22  1  0
 18 23  2  0
 10 24  1  0
 24 25  1  0
 25 26  2  0
 26 27  1  0
 27 28  2  0
 28 29  1  0
 28 30  1  0
 30 31  2  0
 24 32  2  0
  7 33  1  0
 33 34  2  0
 34  4  1  0
 32  8  1  0
 23 13  1  0
 31 25  1  0
  5 35  1  0
  6 36  1  0
  9 37  1  0
 11 38  1  0
 11 39  1  0
 12 40  1  0
 14 41  1  0
 17 42  1  0
 23 43  1  0
 26 44  1  0
 27 45  1  0
 30 46  1  0
 31 47  1  0
 33 48  1  0
 34 49  1  0
M  CHG  1   3  -1
M  END
>  <meeko>  (3) 
{"is_sidechain": [false], "free_energy": -8.75, "intermolecular_energy": -12.729, "internal_energy": -1.378}

> <PREPARED_BY>
siam chowdhury
Computational and Medicinal Chemistry
[Dr. Alam's Research Team] www.alamresearch.org
Arkansas State University

$$$$
25sa23_out
     RDKit          3D

 49 52  0  0  0  0  0  0  0  0999 V2000
    5.6180   14.1340   32.4140 O   0  0  0  0  0  0  0  0  0  0  0  0
    6.6070   14.3610   31.7370 C   0  0  0  0  0  0  0  0  0  0  0  0
    6.5700   14.4450   30.3920 O   0  0  0  0  0  0  0  0  0  0  0  0
    7.9480   14.6040   32.3330 C   0  0  0  0  0  0  0  0  0  0  0  0
    8.1910   14.5860   33.7130 C   0  0  0  0  0  0  0  0  0  0  0  0
    9.4670   14.8940   34.2100 C   0  0  0  0  0  0  0  0  0  0  0  0
   10.5000   15.2500   33.3310 C   0  0  0  0  0  0  0  0  0  0  0  0
   11.7660   15.6630   33.8430 N   0  0  0  0  0  0  0  0  0  0  0  0
   12.5860   14.9420   34.6720 C   0  0  0  0  0  0  0  0  0  0  0  0
   13.7560   15.6530   34.8140 C   0  0  0  0  0  0  0  0  0  0  0  0
   14.9740   15.1880   35.5380 C   0  0  0  0  0  0  0  0  0  0  0  0
   14.7790   14.9860   36.9720 N   0  0  0  0  0  0  0  0  0  0  0  0
   15.2930   15.9360   37.8600 C   0  0  0  0  0  0  0  0  0  0  0  0
   16.5740   15.8530   38.4120 C   0  0  0  0  0  0  0  0  0  0  0  0
   17.0580   16.8630   39.2370 C   0  0  0  0  0  0  0  0  0  0  0  0
   18.2820   16.7460   39.7660 F   0  0  0  0  0  0  0  0  0  0  0  0
   16.3000   17.9900   39.5140 C   0  0  0  0  0  0  0  0  0  0  0  0
   15.0330   18.1270   38.9410 C   0  0  0  0  0  0  0  0  0  0  0  0
   14.1870   19.3450   39.2040 C   0  0  0  0  0  0  0  0  0  0  0  0
   14.8970   20.5060   39.2240 F   0  0  0  0  0  0  0  0  0  0  0  0
   13.2120   19.5160   38.2700 F   0  0  0  0  0  0  0  0  0  0  0  0
   13.5470   19.2780   40.4050 F   0  0  0  0  0  0  0  0  0  0  0  0
   14.5520   17.1030   38.1020 C   0  0  0  0  0  0  0  0  0  0  0  0
   13.5340   16.8680   34.1010 C   0  0  0  0  0  0  0  0  0  0  0  0
   14.4400   18.0210   33.9700 C   0  0  0  0  0  0  0  0  0  0  0  0
   14.7540   18.8220   35.0820 C   0  0  0  0  0  0  0  0  0  0  0  0
   15.6470   19.8910   34.9710 C   0  0  0  0  0  0  0  0  0  0  0  0
   16.2120   20.1830   33.7400 C   0  0  0  0  0  0  0  0  0  0  0  0
   17.0640   21.2110   33.6310 F   0  0  0  0  0  0  0  0  0  0  0  0
   15.9010   19.4230   32.6160 C   0  0  0  0  0  0  0  0  0  0  0  0
   15.0170   18.3440   32.7310 C   0  0  0  0  0  0  0  0  0  0  0  0
   12.3350   16.8420   33.4880 N   0  0  0  0  0  0  0  0  0  0  0  0
   10.2570   15.2460   31.9500 C   0  0  0  0  0  0  0  0  0  0  0  0
    8.9880   14.9280   31.4560 C   0  0  0  0  0  0  0  0  0  0  0  0
    7.3789   14.3296   34.4092 H   0  0  0  0  0  0  0  0  0  0  0  0
    9.6574   14.8560   35.2927 H   0  0  0  0  0  0  0  0  0  0  0  0
   12.3520   13.9734   35.1380 H   0  0  0  0  0  0  0  0  0  0  0  0
   15.2945   14.2332   35.0958 H   0  0  0  0  0  0  0  0  0  0  0  0
   15.7275   15.9822   35.4307 H   0  0  0  0  0  0  0  0  0  0  0  0
   14.2950   14.1980   37.3060 H   0  0  0  0  0  0  0  0  0  0  0  0
   17.2061   14.9801   38.1919 H   0  0  0  0  0  0  0  0  0  0  0  0
   16.6934   18.7715   40.1807 H   0  0  0  0  0  0  0  0  0  0  0  0
   13.5687   17.2212   37.6234 H   0  0  0  0  0  0  0  0  0  0  0  0
   14.2893   18.6037   36.0548 H   0  0  0  0  0  0  0  0  0  0  0  0
   15.8995   20.4961   35.8542 H   0  0  0  0  0  0  0  0  0  0  0  0
   16.3481   19.6694   31.6416 H   0  0  0  0  0  0  0  0  0  0  0  0
   14.7719   17.7434   31.8427 H   0  0  0  0  0  0  0  0  0  0  0  0
   11.0693   15.4945   31.2512 H   0  0  0  0  0  0  0  0  0  0  0  0
    8.8067   14.9327   30.3710 H   0  0  0  0  0  0  0  0  0  0  0  0
  1  2  2  0
  2  3  1  0
  2  4  1  0
  4  5  2  0
  5  6  1  0
  6  7  2  0
  7  8  1  0
  8  9  1  0
  9 10  2  0
 10 11  1  0
 11 12  1  0
 12 13  1  0
 13 14  2  0
 14 15  1  0
 15 16  1  0
 15 17  2  0
 17 18  1  0
 18 19  1  0
 19 20  1  0
 19 21  1  0
 19 22  1  0
 18 23  2  0
 10 24  1  0
 24 25  1  0
 25 26  2  0
 26 27  1  0
 27 28  2  0
 28 29  1  0
 28 30  1  0
 30 31  2  0
 24 32  2  0
  7 33  1  0
 33 34  2  0
 34  4  1  0
 32  8  1  0
 23 13  1  0
 31 25  1  0
  5 35  1  0
  6 36  1  0
  9 37  1  0
 11 38  1  0
 11 39  1  0
 12 40  1  0
 14 41  1  0
 17 42  1  0
 23 43  1  0
 26 44  1  0
 27 45  1  0
 30 46  1  0
 31 47  1  0
 33 48  1  0
 34 49  1  0
M  CHG  1   3  -1
M  END
>  <meeko>  (4) 
{"is_sidechain": [false], "free_energy": -8.583, "intermolecular_energy": -12.082, "internal_energy": -1.791}

> <PREPARED_BY>
siam chowdhury
Computational and Medicinal Chemistry
[Dr. Alam's Research Team] www.alamresearch.org
Arkansas State University

$$$$
25sa23_out
     RDKit          3D

 49 52  0  0  0  0  0  0  0  0999 V2000
    5.6070   14.1110   33.0380 O   0  0  0  0  0  0  0  0  0  0  0  0
    6.5420   14.2880   32.2750 C   0  0  0  0  0  0  0  0  0  0  0  0
    6.4180   14.2200   30.9350 O   0  0  0  0  0  0  0  0  0  0  0  0
    7.9090   14.6340   32.7510 C   0  0  0  0  0  0  0  0  0  0  0  0
    8.2880   14.5910   34.0990 C   0  0  0  0  0  0  0  0  0  0  0  0
    9.5750   14.9980   34.4840 C   0  0  0  0  0  0  0  0  0  0  0  0
   10.4800   15.4780   33.5270 C   0  0  0  0  0  0  0  0  0  0  0  0
   11.7490   15.9890   33.9310 N   0  0  0  0  0  0  0  0  0  0  0  0
   12.5260   16.8850   33.2420 C   0  0  0  0  0  0  0  0  0  0  0  0
   13.5970   17.2050   34.0440 C   0  0  0  0  0  0  0  0  0  0  0  0
   14.6350   18.2310   33.7410 C   0  0  0  0  0  0  0  0  0  0  0  0
   14.3370   19.5600   34.2710 N   0  0  0  0  0  0  0  0  0  0  0  0
   14.7640   19.8790   35.5640 C   0  0  0  0  0  0  0  0  0  0  0  0
   13.9330   20.4680   36.5200 C   0  0  0  0  0  0  0  0  0  0  0  0
   14.3920   20.7010   37.8130 C   0  0  0  0  0  0  0  0  0  0  0  0
   13.5780   21.2840   38.7010 F   0  0  0  0  0  0  0  0  0  0  0  0
   15.6710   20.3320   38.1990 C   0  0  0  0  0  0  0  0  0  0  0  0
   16.5120   19.6970   37.2810 C   0  0  0  0  0  0  0  0  0  0  0  0
   17.9020   19.2660   37.6680 C   0  0  0  0  0  0  0  0  0  0  0  0
   18.3700   18.2170   36.9370 F   0  0  0  0  0  0  0  0  0  0  0  0
   18.8170   20.2630   37.5230 F   0  0  0  0  0  0  0  0  0  0  0  0
   17.9770   18.8750   38.9710 F   0  0  0  0  0  0  0  0  0  0  0  0
   16.0380   19.4600   35.9760 C   0  0  0  0  0  0  0  0  0  0  0  0
   13.4510   16.3750   35.1950 C   0  0  0  0  0  0  0  0  0  0  0  0
   14.3520   16.2660   36.3550 C   0  0  0  0  0  0  0  0  0  0  0  0
   15.5850   15.5990   36.2500 C   0  0  0  0  0  0  0  0  0  0  0  0
   16.4630   15.5310   37.3350 C   0  0  0  0  0  0  0  0  0  0  0  0
   16.1000   16.1070   38.5430 C   0  0  0  0  0  0  0  0  0  0  0  0
   16.9370   16.0370   39.5860 F   0  0  0  0  0  0  0  0  0  0  0  0
   14.8750   16.7510   38.6840 C   0  0  0  0  0  0  0  0  0  0  0  0
   14.0030   16.8310   37.5920 C   0  0  0  0  0  0  0  0  0  0  0  0
   12.3060   15.6700   35.1270 N   0  0  0  0  0  0  0  0  0  0  0  0
   10.1020   15.4980   32.1760 C   0  0  0  0  0  0  0  0  0  0  0  0
    8.8240   15.0820   31.7930 C   0  0  0  0  0  0  0  0  0  0  0  0
    7.5748   14.2372   34.8581 H   0  0  0  0  0  0  0  0  0  0  0  0
    9.8747   14.9401   35.5408 H   0  0  0  0  0  0  0  0  0  0  0  0
   12.3289   17.2761   32.2329 H   0  0  0  0  0  0  0  0  0  0  0  0
   15.5893   17.8939   34.1719 H   0  0  0  0  0  0  0  0  0  0  0  0
   14.6724   18.3287   32.6460 H   0  0  0  0  0  0  0  0  0  0  0  0
   13.8470   20.2170   33.7290 H   0  0  0  0  0  0  0  0  0  0  0  0
   12.9053   20.7505   36.2480 H   0  0  0  0  0  0  0  0  0  0  0  0
   16.0218   20.5376   39.2211 H   0  0  0  0  0  0  0  0  0  0  0  0
   16.6847   18.9317   35.2599 H   0  0  0  0  0  0  0  0  0  0  0  0
   15.8632   15.1228   35.2982 H   0  0  0  0  0  0  0  0  0  0  0  0
   17.4341   15.0247   37.2317 H   0  0  0  0  0  0  0  0  0  0  0  0
   14.5928   17.1956   39.6498 H   0  0  0  0  0  0  0  0  0  0  0  0
   13.0351   17.3414   37.7041 H   0  0  0  0  0  0  0  0  0  0  0  0
   10.8159   15.8432   31.4136 H   0  0  0  0  0  0  0  0  0  0  0  0
    8.5361   15.1071   30.7316 H   0  0  0  0  0  0  0  0  0  0  0  0
  1  2  2  0
  2  3  1  0
  2  4  1  0
  4  5  2  0
  5  6  1  0
  6  7  2  0
  7  8  1  0
  8  9  1  0
  9 10  2  0
 10 11  1  0
 11 12  1  0
 12 13  1  0
 13 14  2  0
 14 15  1  0
 15 16  1  0
 15 17  2  0
 17 18  1  0
 18 19  1  0
 19 20  1  0
 19 21  1  0
 19 22  1  0
 18 23  2  0
 10 24  1  0
 24 25  1  0
 25 26  2  0
 26 27  1  0
 27 28  2  0
 28 29  1  0
 28 30  1  0
 30 31  2  0
 24 32  2  0
  7 33  1  0
 33 34  2  0
 34  4  1  0
 32  8  1  0
 23 13  1  0
 31 25  1  0
  5 35  1  0
  6 36  1  0
  9 37  1  0
 11 38  1  0
 11 39  1  0
 12 40  1  0
 14 41  1  0
 17 42  1  0
 23 43  1  0
 26 44  1  0
 27 45  1  0
 30 46  1  0
 31 47  1  0
 33 48  1  0
 34 49  1  0
M  CHG  1   3  -1
M  END
>  <meeko>  (5) 
{"is_sidechain": [false], "free_energy": -8.51, "intermolecular_energy": -10.727, "internal_energy": -3.043}

> <PREPARED_BY>
siam chowdhury
Computational and Medicinal Chemistry
[Dr. Alam's Research Team] www.alamresearch.org
Arkansas State University

$$$$
25sa23_out
     RDKit          3D

 49 52  0  0  0  0  0  0  0  0999 V2000
    6.2610   14.0930   31.1880 O   0  0  0  0  0  0  0  0  0  0  0  0
    6.5340   14.2800   32.3620 C   0  0  0  0  0  0  0  0  0  0  0  0
    5.6260   14.1720   33.3530 O   0  0  0  0  0  0  0  0  0  0  0  0
    7.9100   14.6130   32.8210 C   0  0  0  0  0  0  0  0  0  0  0  0
    8.3130   14.5380   34.1600 C   0  0  0  0  0  0  0  0  0  0  0  0
    9.6070   14.9330   34.5320 C   0  0  0  0  0  0  0  0  0  0  0  0
   10.4960   15.4340   33.5710 C   0  0  0  0  0  0  0  0  0  0  0  0
   11.7730   15.9330   33.9650 N   0  0  0  0  0  0  0  0  0  0  0  0
   12.5650   16.8000   33.2560 C   0  0  0  0  0  0  0  0  0  0  0  0
   13.6410   17.1210   34.0520 C   0  0  0  0  0  0  0  0  0  0  0  0
   14.6960   18.1220   33.7260 C   0  0  0  0  0  0  0  0  0  0  0  0
   14.4950   19.4290   34.3500 N   0  0  0  0  0  0  0  0  0  0  0  0
   14.9070   19.6120   35.6730 C   0  0  0  0  0  0  0  0  0  0  0  0
   16.2200   19.4020   36.1020 C   0  0  0  0  0  0  0  0  0  0  0  0
   16.5870   19.6660   37.4180 C   0  0  0  0  0  0  0  0  0  0  0  0
   17.8480   19.4360   37.8050 F   0  0  0  0  0  0  0  0  0  0  0  0
   15.6740   20.1690   38.3320 C   0  0  0  0  0  0  0  0  0  0  0  0
   14.3640   20.4350   37.9240 C   0  0  0  0  0  0  0  0  0  0  0  0
   13.3490   20.9980   38.8830 C   0  0  0  0  0  0  0  0  0  0  0  0
   13.3740   20.4060   40.1090 F   0  0  0  0  0  0  0  0  0  0  0  0
   13.5230   22.3290   39.1050 F   0  0  0  0  0  0  0  0  0  0  0  0
   12.0740   20.8570   38.4270 F   0  0  0  0  0  0  0  0  0  0  0  0
   14.0020   20.1700   36.5890 C   0  0  0  0  0  0  0  0  0  0  0  0
   13.4800   16.3200   35.2220 C   0  0  0  0  0  0  0  0  0  0  0  0
   14.3780   16.2230   36.3840 C   0  0  0  0  0  0  0  0  0  0  0  0
   15.6610   15.6600   36.2600 C   0  0  0  0  0  0  0  0  0  0  0  0
   16.5330   15.6050   37.3500 C   0  0  0  0  0  0  0  0  0  0  0  0
   16.1180   16.0900   38.5810 C   0  0  0  0  0  0  0  0  0  0  0  0
   16.9500   16.0330   39.6280 F   0  0  0  0  0  0  0  0  0  0  0  0
   14.8450   16.6300   38.7400 C   0  0  0  0  0  0  0  0  0  0  0  0
   13.9780   16.6970   37.6430 C   0  0  0  0  0  0  0  0  0  0  0  0
   12.3230   15.6330   35.1680 N   0  0  0  0  0  0  0  0  0  0  0  0
   10.0940   15.4870   32.2280 C   0  0  0  0  0  0  0  0  0  0  0  0
    8.8080   15.0820   31.8580 C   0  0  0  0  0  0  0  0  0  0  0  0
    7.6125   14.1680   34.9231 H   0  0  0  0  0  0  0  0  0  0  0  0
    9.9250   14.8492   35.5817 H   0  0  0  0  0  0  0  0  0  0  0  0
   12.3750   17.1707   32.2379 H   0  0  0  0  0  0  0  0  0  0  0  0
   15.6648   17.7243   34.0626 H   0  0  0  0  0  0  0  0  0  0  0  0
   14.6556   18.2813   32.6383 H   0  0  0  0  0  0  0  0  0  0  0  0
   14.0790   20.1650   33.8470 H   0  0  0  0  0  0  0  0  0  0  0  0
   16.9709   19.0243   35.3925 H   0  0  0  0  0  0  0  0  0  0  0  0
   15.9788   20.3576   39.3720 H   0  0  0  0  0  0  0  0  0  0  0  0
   12.9811   20.4071   36.2549 H   0  0  0  0  0  0  0  0  0  0  0  0
   15.9830   15.2564   35.2887 H   0  0  0  0  0  0  0  0  0  0  0  0
   17.5409   15.1803   37.2327 H   0  0  0  0  0  0  0  0  0  0  0  0
   14.5217   17.0024   39.7233 H   0  0  0  0  0  0  0  0  0  0  0  0
   12.9728   17.1256   37.7690 H   0  0  0  0  0  0  0  0  0  0  0  0
   10.7948   15.8494   31.4615 H   0  0  0  0  0  0  0  0  0  0  0  0
    8.5011   15.1327   30.8029 H   0  0  0  0  0  0  0  0  0  0  0  0
  1  2  2  0
  2  3  1  0
  2  4  1  0
  4  5  2  0
  5  6  1  0
  6  7  2  0
  7  8  1  0
  8  9  1  0
  9 10  2  0
 10 11  1  0
 11 12  1  0
 12 13  1  0
 13 14  2  0
 14 15  1  0
 15 16  1  0
 15 17  2  0
 17 18  1  0
 18 19  1  0
 19 20  1  0
 19 21  1  0
 19 22  1  0
 18 23  2  0
 10 24  1  0
 24 25  1  0
 25 26  2  0
 26 27  1  0
 27 28  2  0
 28 29  1  0
 28 30  1  0
 30 31  2  0
 24 32  2  0
  7 33  1  0
 33 34  2  0
 34  4  1  0
 32  8  1  0
 23 13  1  0
 31 25  1  0
  5 35  1  0
  6 36  1  0
  9 37  1  0
 11 38  1  0
 11 39  1  0
 12 40  1  0
 14 41  1  0
 17 42  1  0
 23 43  1  0
 26 44  1  0
 27 45  1  0
 30 46  1  0
 31 47  1  0
 33 48  1  0
 34 49  1  0
M  CHG  1   3  -1
M  END
>  <meeko>  (6) 
{"is_sidechain": [false], "free_energy": -8.442, "intermolecular_energy": -11.096, "internal_energy": -2.578}

> <PREPARED_BY>
siam chowdhury
Computational and Medicinal Chemistry
[Dr. Alam's Research Team] www.alamresearch.org
Arkansas State University

$$$$
25sa23_out
     RDKit          3D

 49 52  0  0  0  0  0  0  0  0999 V2000
   11.6490   26.1500   37.2950 O   0  0  0  0  0  0  0  0  0  0  0  0
   12.7310   25.7010   37.6320 C   0  0  0  0  0  0  0  0  0  0  0  0
   13.6540   26.4290   38.2920 O   0  0  0  0  0  0  0  0  0  0  0  0
   13.1260   24.2880   37.3800 C   0  0  0  0  0  0  0  0  0  0  0  0
   12.2420   23.2080   37.5040 C   0  0  0  0  0  0  0  0  0  0  0  0
   12.7010   21.8950   37.3180 C   0  0  0  0  0  0  0  0  0  0  0  0
   14.0520   21.6520   37.0360 C   0  0  0  0  0  0  0  0  0  0  0  0
   14.5380   20.3140   36.9520 N   0  0  0  0  0  0  0  0  0  0  0  0
   14.1720   19.3690   36.0280 C   0  0  0  0  0  0  0  0  0  0  0  0
   14.9710   18.2660   36.2260 C   0  0  0  0  0  0  0  0  0  0  0  0
   14.9960   17.0440   35.3710 C   0  0  0  0  0  0  0  0  0  0  0  0
   13.9490   17.0040   34.3530 N   0  0  0  0  0  0  0  0  0  0  0  0
   12.8640   16.1420   34.5380 C   0  0  0  0  0  0  0  0  0  0  0  0
   12.6250   15.4590   35.7340 C   0  0  0  0  0  0  0  0  0  0  0  0
   11.4910   14.6670   35.8840 C   0  0  0  0  0  0  0  0  0  0  0  0
   11.2990   14.0090   37.0340 F   0  0  0  0  0  0  0  0  0  0  0  0
   10.5540   14.5520   34.8680 C   0  0  0  0  0  0  0  0  0  0  0  0
   10.7390   15.2600   33.6770 C   0  0  0  0  0  0  0  0  0  0  0  0
    9.7340   15.1740   32.5580 C   0  0  0  0  0  0  0  0  0  0  0  0
    9.5230   16.3610   31.9250 F   0  0  0  0  0  0  0  0  0  0  0  0
   10.1040   14.2920   31.5910 F   0  0  0  0  0  0  0  0  0  0  0  0
    8.5110   14.7620   32.9940 F   0  0  0  0  0  0  0  0  0  0  0  0
   11.8860   16.0640   33.5350 C   0  0  0  0  0  0  0  0  0  0  0  0
   15.7530   18.5840   37.3750 C   0  0  0  0  0  0  0  0  0  0  0  0
   16.7410   17.7370   38.0630 C   0  0  0  0  0  0  0  0  0  0  0  0
   16.3450   16.8430   39.0740 C   0  0  0  0  0  0  0  0  0  0  0  0
   17.2710   16.0050   39.6990 C   0  0  0  0  0  0  0  0  0  0  0  0
   18.6080   16.0750   39.3370 C   0  0  0  0  0  0  0  0  0  0  0  0
   19.4980   15.2770   39.9400 F   0  0  0  0  0  0  0  0  0  0  0  0
   19.0330   16.9680   38.3590 C   0  0  0  0  0  0  0  0  0  0  0  0
   18.1010   17.7970   37.7230 C   0  0  0  0  0  0  0  0  0  0  0  0
   15.5040   19.8440   37.7810 N   0  0  0  0  0  0  0  0  0  0  0  0
   14.9280   22.7380   36.8930 C   0  0  0  0  0  0  0  0  0  0  0  0
   14.4670   24.0460   37.0670 C   0  0  0  0  0  0  0  0  0  0  0  0
   11.1849   23.3899   37.7479 H   0  0  0  0  0  0  0  0  0  0  0  0
   11.9973   21.0529   37.3939 H   0  0  0  0  0  0  0  0  0  0  0  0
   13.3840   19.4735   35.2677 H   0  0  0  0  0  0  0  0  0  0  0  0
   15.9714   16.9971   34.8647 H   0  0  0  0  0  0  0  0  0  0  0  0
   14.8208   16.1875   36.0386 H   0  0  0  0  0  0  0  0  0  0  0  0
   14.0060   17.5720   33.5520 H   0  0  0  0  0  0  0  0  0  0  0  0
   13.3405   15.5486   36.5647 H   0  0  0  0  0  0  0  0  0  0  0  0
    9.6716   13.9083   34.9985 H   0  0  0  0  0  0  0  0  0  0  0  0
   12.0191   16.6473   32.6119 H   0  0  0  0  0  0  0  0  0  0  0  0
   15.2884   16.8032   39.3774 H   0  0  0  0  0  0  0  0  0  0  0  0
   16.9425   15.2950   40.4723 H   0  0  0  0  0  0  0  0  0  0  0  0
   20.0972   17.0227   38.0863 H   0  0  0  0  0  0  0  0  0  0  0  0
   18.4383   18.5023   36.9492 H   0  0  0  0  0  0  0  0  0  0  0  0
   15.9841   22.5593   36.6424 H   0  0  0  0  0  0  0  0  0  0  0  0
   15.1636   24.8902   36.9570 H   0  0  0  0  0  0  0  0  0  0  0  0
  1  2  2  0
  2  3  1  0
  2  4  1  0
  4  5  2  0
  5  6  1  0
  6  7  2  0
  7  8  1  0
  8  9  1  0
  9 10  2  0
 10 11  1  0
 11 12  1  0
 12 13  1  0
 13 14  2  0
 14 15  1  0
 15 16  1  0
 15 17  2  0
 17 18  1  0
 18 19  1  0
 19 20  1  0
 19 21  1  0
 19 22  1  0
 18 23  2  0
 10 24  1  0
 24 25  1  0
 25 26  2  0
 26 27  1  0
 27 28  2  0
 28 29  1  0
 28 30  1  0
 30 31  2  0
 24 32  2  0
  7 33  1  0
 33 34  2  0
 34  4  1  0
 32  8  1  0
 23 13  1  0
 31 25  1  0
  5 35  1  0
  6 36  1  0
  9 37  1  0
 11 38  1  0
 11 39  1  0
 12 40  1  0
 14 41  1  0
 17 42  1  0
 23 43  1  0
 26 44  1  0
 27 45  1  0
 30 46  1  0
 31 47  1  0
 33 48  1  0
 34 49  1  0
M  CHG  1   3  -1
M  END
>  <meeko>  (7) 
{"is_sidechain": [false], "free_energy": -8.433, "intermolecular_energy": -12.479, "internal_energy": -1.182}

> <PREPARED_BY>
siam chowdhury
Computational and Medicinal Chemistry
[Dr. Alam's Research Team] www.alamresearch.org
Arkansas State University

$$$$
25sa23_out
     RDKit          3D

 49 52  0  0  0  0  0  0  0  0999 V2000
    9.3060   14.4650   31.5700 O   0  0  0  0  0  0  0  0  0  0  0  0
    9.3170   14.7550   32.7540 C   0  0  0  0  0  0  0  0  0  0  0  0
    8.2280   14.6580   33.5430 O   0  0  0  0  0  0  0  0  0  0  0  0
   10.5480   15.2090   33.4570 C   0  0  0  0  0  0  0  0  0  0  0  0
   10.9470   14.7160   34.7060 C   0  0  0  0  0  0  0  0  0  0  0  0
   12.0830   15.2400   35.3430 C   0  0  0  0  0  0  0  0  0  0  0  0
   12.8090   16.2810   34.7470 C   0  0  0  0  0  0  0  0  0  0  0  0
   13.8990   16.8840   35.4410 N   0  0  0  0  0  0  0  0  0  0  0  0
   14.2520   18.2090   35.4130 C   0  0  0  0  0  0  0  0  0  0  0  0
   15.2730   18.3830   36.3190 C   0  0  0  0  0  0  0  0  0  0  0  0
   15.8870   19.6880   36.6980 C   0  0  0  0  0  0  0  0  0  0  0  0
   15.0780   20.8550   36.3510 N   0  0  0  0  0  0  0  0  0  0  0  0
   14.3140   21.4640   37.3510 C   0  0  0  0  0  0  0  0  0  0  0  0
   14.4630   21.1780   38.7100 C   0  0  0  0  0  0  0  0  0  0  0  0
   13.7220   21.8660   39.6660 C   0  0  0  0  0  0  0  0  0  0  0  0
   13.8740   21.5560   40.9590 F   0  0  0  0  0  0  0  0  0  0  0  0
   12.8380   22.8700   39.3040 C   0  0  0  0  0  0  0  0  0  0  0  0
   12.6990   23.2140   37.9570 C   0  0  0  0  0  0  0  0  0  0  0  0
   11.7610   24.3110   37.5270 C   0  0  0  0  0  0  0  0  0  0  0  0
   11.9310   25.4730   38.2160 F   0  0  0  0  0  0  0  0  0  0  0  0
   11.8990   24.6310   36.2110 F   0  0  0  0  0  0  0  0  0  0  0  0
   10.4540   23.9670   37.6940 F   0  0  0  0  0  0  0  0  0  0  0  0
   13.4560   22.5170   36.9950 C   0  0  0  0  0  0  0  0  0  0  0  0
   15.5570   17.0730   36.8050 C   0  0  0  0  0  0  0  0  0  0  0  0
   16.6020   16.6660   37.7590 C   0  0  0  0  0  0  0  0  0  0  0  0
   16.4020   16.7950   39.1450 C   0  0  0  0  0  0  0  0  0  0  0  0
   17.3720   16.3700   40.0570 C   0  0  0  0  0  0  0  0  0  0  0  0
   18.5630   15.8380   39.5860 C   0  0  0  0  0  0  0  0  0  0  0  0
   19.4970   15.4360   40.4580 F   0  0  0  0  0  0  0  0  0  0  0  0
   18.7990   15.7220   38.2200 C   0  0  0  0  0  0  0  0  0  0  0  0
   17.8200   16.1350   37.3080 C   0  0  0  0  0  0  0  0  0  0  0  0
   14.6910   16.1800   36.2890 N   0  0  0  0  0  0  0  0  0  0  0  0
   12.4170   16.7560   33.4870 C   0  0  0  0  0  0  0  0  0  0  0  0
   11.2920   16.2250   32.8490 C   0  0  0  0  0  0  0  0  0  0  0  0
   10.3681   13.9153   35.1895 H   0  0  0  0  0  0  0  0  0  0  0  0
   12.4046   14.8326   36.3128 H   0  0  0  0  0  0  0  0  0  0  0  0
   13.8016   18.9894   34.7821 H   0  0  0  0  0  0  0  0  0  0  0  0
   16.0470   19.6906   37.7863 H   0  0  0  0  0  0  0  0  0  0  0  0
   16.8244   19.7731   36.1287 H   0  0  0  0  0  0  0  0  0  0  0  0
   15.0710   21.2040   35.4320 H   0  0  0  0  0  0  0  0  0  0  0  0
   15.1735   20.4008   39.0279 H   0  0  0  0  0  0  0  0  0  0  0  0
   12.2495   23.3928   40.0723 H   0  0  0  0  0  0  0  0  0  0  0  0
   13.3728   22.8053   35.9367 H   0  0  0  0  0  0  0  0  0  0  0  0
   15.4665   17.2378   39.5175 H   0  0  0  0  0  0  0  0  0  0  0  0
   17.1924   16.4567   41.1388 H   0  0  0  0  0  0  0  0  0  0  0  0
   19.7512   15.3073   37.8576 H   0  0  0  0  0  0  0  0  0  0  0  0
   18.0075   16.0423   36.2281 H   0  0  0  0  0  0  0  0  0  0  0  0
   12.9983   17.5513   32.9976 H   0  0  0  0  0  0  0  0  0  0  0  0
   10.9904   16.6086   31.8632 H   0  0  0  0  0  0  0  0  0  0  0  0
  1  2  2  0
  2  3  1  0
  2  4  1  0
  4  5  2  0
  5  6  1  0
  6  7  2  0
  7  8  1  0
  8  9  1  0
  9 10  2  0
 10 11  1  0
 11 12  1  0
 12 13  1  0
 13 14  2  0
 14 15  1  0
 15 16  1  0
 15 17  2  0
 17 18  1  0
 18 19  1  0
 19 20  1  0
 19 21  1  0
 19 22  1  0
 18 23  2  0
 10 24  1  0
 24 25  1  0
 25 26  2  0
 26 27  1  0
 27 28  2  0
 28 29  1  0
 28 30  1  0
 30 31  2  0
 24 32  2  0
  7 33  1  0
 33 34  2  0
 34  4  1  0
 32  8  1  0
 23 13  1  0
 31 25  1  0
  5 35  1  0
  6 36  1  0
  9 37  1  0
 11 38  1  0
 11 39  1  0
 12 40  1  0
 14 41  1  0
 17 42  1  0
 23 43  1  0
 26 44  1  0
 27 45  1  0
 30 46  1  0
 31 47  1  0
 33 48  1  0
 34 49  1  0
M  CHG  1   3  -1
M  END
>  <meeko>  (8) 
{"is_sidechain": [false], "free_energy": -8.413, "intermolecular_energy": -12.409, "internal_energy": -1.223}

> <PREPARED_BY>
siam chowdhury
Computational and Medicinal Chemistry
[Dr. Alam's Research Team] www.alamresearch.org
Arkansas State University

$$$$
25sa23_out
     RDKit          3D

 49 52  0  0  0  0  0  0  0  0999 V2000
   10.4730   22.8320   42.5030 O   0  0  0  0  0  0  0  0  0  0  0  0
   10.5500   21.8330   41.8070 C   0  0  0  0  0  0  0  0  0  0  0  0
    9.8920   20.6900   42.0890 O   0  0  0  0  0  0  0  0  0  0  0  0
   11.3500   21.7890   40.5540 C   0  0  0  0  0  0  0  0  0  0  0  0
   11.4120   22.8510   39.6420 C   0  0  0  0  0  0  0  0  0  0  0  0
   12.1320   22.7150   38.4450 C   0  0  0  0  0  0  0  0  0  0  0  0
   12.7700   21.5050   38.1390 C   0  0  0  0  0  0  0  0  0  0  0  0
   13.4120   21.3320   36.8770 N   0  0  0  0  0  0  0  0  0  0  0  0
   14.3040   20.3460   36.5440 C   0  0  0  0  0  0  0  0  0  0  0  0
   14.5750   20.4710   35.2000 C   0  0  0  0  0  0  0  0  0  0  0  0
   15.4070   19.5370   34.3890 C   0  0  0  0  0  0  0  0  0  0  0  0
   15.0030   18.1360   34.4860 N   0  0  0  0  0  0  0  0  0  0  0  0
   13.8080   17.7370   33.8780 C   0  0  0  0  0  0  0  0  0  0  0  0
   13.2540   18.3950   32.7770 C   0  0  0  0  0  0  0  0  0  0  0  0
   12.0980   17.9120   32.1710 C   0  0  0  0  0  0  0  0  0  0  0  0
   11.5800   18.5740   31.1290 F   0  0  0  0  0  0  0  0  0  0  0  0
   11.4800   16.7560   32.6200 C   0  0  0  0  0  0  0  0  0  0  0  0
   12.0350   16.0480   33.6900 C   0  0  0  0  0  0  0  0  0  0  0  0
   11.4000   14.7790   34.1950 C   0  0  0  0  0  0  0  0  0  0  0  0
   11.1130   14.8070   35.5260 F   0  0  0  0  0  0  0  0  0  0  0  0
   10.2300   14.4930   33.5640 F   0  0  0  0  0  0  0  0  0  0  0  0
   12.2010   13.6930   34.0100 F   0  0  0  0  0  0  0  0  0  0  0  0
   13.2080   16.5400   34.2950 C   0  0  0  0  0  0  0  0  0  0  0  0
   13.8670   21.6410   34.7930 C   0  0  0  0  0  0  0  0  0  0  0  0
   13.8480   22.2720   33.4630 C   0  0  0  0  0  0  0  0  0  0  0  0
   13.0810   21.7280   32.4170 C   0  0  0  0  0  0  0  0  0  0  0  0
   13.0240   22.3480   31.1670 C   0  0  0  0  0  0  0  0  0  0  0  0
   13.7580   23.5030   30.9440 C   0  0  0  0  0  0  0  0  0  0  0  0
   13.7100   24.0950   29.7440 F   0  0  0  0  0  0  0  0  0  0  0  0
   14.5460   24.0500   31.9520 C   0  0  0  0  0  0  0  0  0  0  0  0
   14.5900   23.4360   33.2090 C   0  0  0  0  0  0  0  0  0  0  0  0
   13.1380   22.1300   35.8140 N   0  0  0  0  0  0  0  0  0  0  0  0
   12.7230   20.4520   39.0650 C   0  0  0  0  0  0  0  0  0  0  0  0
   12.0150   20.5940   40.2610 C   0  0  0  0  0  0  0  0  0  0  0  0
   10.8941   23.7954   39.8652 H   0  0  0  0  0  0  0  0  0  0  0  0
   12.1959   23.5608   37.7446 H   0  0  0  0  0  0  0  0  0  0  0  0
   14.7260   19.5929   37.2257 H   0  0  0  0  0  0  0  0  0  0  0  0
   15.3404   19.8429   33.3345 H   0  0  0  0  0  0  0  0  0  0  0  0
   16.4305   19.5989   34.7872 H   0  0  0  0  0  0  0  0  0  0  0  0
   15.5600   17.4860   34.9700 H   0  0  0  0  0  0  0  0  0  0  0  0
   13.7359   19.3031   32.3856 H   0  0  0  0  0  0  0  0  0  0  0  0
   10.5586   16.3977   32.1376 H   0  0  0  0  0  0  0  0  0  0  0  0
   13.6658   15.9699   35.1168 H   0  0  0  0  0  0  0  0  0  0  0  0
   12.5168   20.7990   32.5863 H   0  0  0  0  0  0  0  0  0  0  0  0
   12.4016   21.9234   30.3655 H   0  0  0  0  0  0  0  0  0  0  0  0
   15.1320   24.9613   31.7617 H   0  0  0  0  0  0  0  0  0  0  0  0
   15.2122   23.8699   34.0056 H   0  0  0  0  0  0  0  0  0  0  0  0
   13.2466   19.5092   38.8481 H   0  0  0  0  0  0  0  0  0  0  0  0
   11.9803   19.7600   40.9774 H   0  0  0  0  0  0  0  0  0  0  0  0
  1  2  2  0
  2  3  1  0
  2  4  1  0
  4  5  2  0
  5  6  1  0
  6  7  2  0
  7  8  1  0
  8  9  1  0
  9 10  2  0
 10 11  1  0
 11 12  1  0
 12 13  1  0
 13 14  2  0
 14 15  1  0
 15 16  1  0
 15 17  2  0
 17 18  1  0
 18 19  1  0
 19 20  1  0
 19 21  1  0
 19 22  1  0
 18 23  2  0
 10 24  1  0
 24 25  1  0
 25 26  2  0
 26 27  1  0
 27 28  2  0
 28 29  1  0
 28 30  1  0
 30 31  2  0
 24 32  2  0
  7 33  1  0
 33 34  2  0
 34  4  1  0
 32  8  1  0
 23 13  1  0
 31 25  1  0
  5 35  1  0
  6 36  1  0
  9 37  1  0
 11 38  1  0
 11 39  1  0
 12 40  1  0
 14 41  1  0
 17 42  1  0
 23 43  1  0
 26 44  1  0
 27 45  1  0
 30 46  1  0
 31 47  1  0
 33 48  1  0
 34 49  1  0
M  CHG  1   3  -1
M  END
>  <meeko>  (9) 
{"is_sidechain": [false], "free_energy": -8.269, "intermolecular_energy": -12.002, "internal_energy": -1.428}

> <PREPARED_BY>
siam chowdhury
Computational and Medicinal Chemistry
[Dr. Alam's Research Team] www.alamresearch.org
Arkansas State University

$$$$
25sa23_out
     RDKit          3D

 49 52  0  0  0  0  0  0  0  0999 V2000
    5.5570   13.9550   32.2360 O   0  0  0  0  0  0  0  0  0  0  0  0
    6.4930   14.4320   31.6170 C   0  0  0  0  0  0  0  0  0  0  0  0
    6.3940   14.8350   30.3340 O   0  0  0  0  0  0  0  0  0  0  0  0
    7.8310   14.6520   32.2300 C   0  0  0  0  0  0  0  0  0  0  0  0
    8.0610   14.6030   33.6110 C   0  0  0  0  0  0  0  0  0  0  0  0
    9.3360   14.8900   34.1250 C   0  0  0  0  0  0  0  0  0  0  0  0
   10.3790   15.2560   33.2640 C   0  0  0  0  0  0  0  0  0  0  0  0
   11.6430   15.6480   33.7950 N   0  0  0  0  0  0  0  0  0  0  0  0
   12.4220   14.9290   34.6650 C   0  0  0  0  0  0  0  0  0  0  0  0
   13.6080   15.6100   34.8160 C   0  0  0  0  0  0  0  0  0  0  0  0
   14.7940   15.1330   35.5840 C   0  0  0  0  0  0  0  0  0  0  0  0
   14.6520   15.2390   37.0340 N   0  0  0  0  0  0  0  0  0  0  0  0
   15.2430   16.3230   37.6900 C   0  0  0  0  0  0  0  0  0  0  0  0
   14.5810   17.0890   38.6520 C   0  0  0  0  0  0  0  0  0  0  0  0
   15.2430   18.1150   39.3210 C   0  0  0  0  0  0  0  0  0  0  0  0
   14.5760   18.8440   40.2250 F   0  0  0  0  0  0  0  0  0  0  0  0
   16.5780   18.3890   39.0750 C   0  0  0  0  0  0  0  0  0  0  0  0
   17.2840   17.6120   38.1520 C   0  0  0  0  0  0  0  0  0  0  0  0
   18.7410   17.8690   37.8710 C   0  0  0  0  0  0  0  0  0  0  0  0
   19.5000   17.9800   38.9950 F   0  0  0  0  0  0  0  0  0  0  0  0
   19.3110   16.8820   37.1280 F   0  0  0  0  0  0  0  0  0  0  0  0
   18.9350   19.0230   37.1740 F   0  0  0  0  0  0  0  0  0  0  0  0
   16.6090   16.5720   37.4830 C   0  0  0  0  0  0  0  0  0  0  0  0
   13.4390   16.8100   34.0630 C   0  0  0  0  0  0  0  0  0  0  0  0
   14.3810   17.9320   33.9210 C   0  0  0  0  0  0  0  0  0  0  0  0
   14.8110   18.6590   35.0450 C   0  0  0  0  0  0  0  0  0  0  0  0
   15.7390   19.6970   34.9210 C   0  0  0  0  0  0  0  0  0  0  0  0
   16.2220   20.0330   33.6660 C   0  0  0  0  0  0  0  0  0  0  0  0
   17.1060   21.0320   33.5440 F   0  0  0  0  0  0  0  0  0  0  0  0
   15.7950   19.3480   32.5330 C   0  0  0  0  0  0  0  0  0  0  0  0
   14.8760   18.2990   32.6600 C   0  0  0  0  0  0  0  0  0  0  0  0
   12.2550   16.8000   33.4210 N   0  0  0  0  0  0  0  0  0  0  0  0
   10.1480   15.2830   31.8800 C   0  0  0  0  0  0  0  0  0  0  0  0
    8.8810   14.9860   31.3690 C   0  0  0  0  0  0  0  0  0  0  0  0
    7.2407   14.3390   34.2946 H   0  0  0  0  0  0  0  0  0  0  0  0
    9.5166   14.8272   35.2083 H   0  0  0  0  0  0  0  0  0  0  0  0
   12.1488   13.9816   35.1527 H   0  0  0  0  0  0  0  0  0  0  0  0
   14.9665   14.0765   35.3308 H   0  0  0  0  0  0  0  0  0  0  0  0
   15.6354   15.7826   35.3010 H   0  0  0  0  0  0  0  0  0  0  0  0
   14.1500   14.5610   37.5400 H   0  0  0  0  0  0  0  0  0  0  0  0
   13.5262   16.8797   38.8834 H   0  0  0  0  0  0  0  0  0  0  0  0
   17.0799   19.2133   39.6028 H   0  0  0  0  0  0  0  0  0  0  0  0
   17.1677   15.9376   36.7791 H   0  0  0  0  0  0  0  0  0  0  0  0
   14.4107   18.4069   36.0381 H   0  0  0  0  0  0  0  0  0  0  0  0
   16.0831   20.2426   35.8120 H   0  0  0  0  0  0  0  0  0  0  0  0
   16.1779   19.6293   31.5409 H   0  0  0  0  0  0  0  0  0  0  0  0
   14.5391   17.7579   31.7635 H   0  0  0  0  0  0  0  0  0  0  0  0
   10.9684   15.5393   31.1935 H   0  0  0  0  0  0  0  0  0  0  0  0
    8.7090   15.0152   30.2829 H   0  0  0  0  0  0  0  0  0  0  0  0
  1  2  2  0
  2  3  1  0
  2  4  1  0
  4  5  2  0
  5  6  1  0
  6  7  2  0
  7  8  1  0
  8  9  1  0
  9 10  2  0
 10 11  1  0
 11 12  1  0
 12 13  1  0
 13 14  2  0
 14 15  1  0
 15 16  1  0
 15 17  2  0
 17 18  1  0
 18 19  1  0
 19 20  1  0
 19 21  1  0
 19 22  1  0
 18 23  2  0
 10 24  1  0
 24 25  1  0
 25 26  2  0
 26 27  1  0
 27 28  2  0
 28 29  1  0
 28 30  1  0
 30 31  2  0
 24 32  2  0
  7 33  1  0
 33 34  2  0
 34  4  1  0
 32  8  1  0
 23 13  1  0
 31 25  1  0
  5 35  1  0
  6 36  1  0
  9 37  1  0
 11 38  1  0
 11 39  1  0
 12 40  1  0
 14 41  1  0
 17 42  1  0
 23 43  1  0
 26 44  1  0
 27 45  1  0
 30 46  1  0
 31 47  1  0
 33 48  1  0
 34 49  1  0
M  CHG  1   3  -1
M  END
>  <meeko>  (10) 
{"is_sidechain": [false], "free_energy": -8.154, "intermolecular_energy": -11.448, "internal_energy": -1.82}

> <PREPARED_BY>
siam chowdhury
Computational and Medicinal Chemistry
[Dr. Alam's Research Team] www.alamresearch.org
Arkansas State University

$$$$
25sa23_out
     RDKit          3D

 49 52  0  0  0  0  0  0  0  0999 V2000
   10.4270   22.8130   42.6870 O   0  0  0  0  0  0  0  0  0  0  0  0
   10.4400   21.8500   41.9380 C   0  0  0  0  0  0  0  0  0  0  0  0
    9.7000   20.7440   42.1540 O   0  0  0  0  0  0  0  0  0  0  0  0
   11.2480   21.8170   40.6900 C   0  0  0  0  0  0  0  0  0  0  0  0
   11.2150   22.8330   39.7250 C   0  0  0  0  0  0  0  0  0  0  0  0
   11.9510   22.7030   38.5370 C   0  0  0  0  0  0  0  0  0  0  0  0
   12.7020   21.5440   38.2940 C   0  0  0  0  0  0  0  0  0  0  0  0
   13.3640   21.3680   37.0430 N   0  0  0  0  0  0  0  0  0  0  0  0
   14.3920   20.4990   36.7790 C   0  0  0  0  0  0  0  0  0  0  0  0
   14.6440   20.5560   35.4270 C   0  0  0  0  0  0  0  0  0  0  0  0
   15.6040   19.6920   34.6840 C   0  0  0  0  0  0  0  0  0  0  0  0
   14.9820   18.5780   33.9710 N   0  0  0  0  0  0  0  0  0  0  0  0
   14.5160   17.4850   34.7090 C   0  0  0  0  0  0  0  0  0  0  0  0
   15.0110   17.1460   35.9700 C   0  0  0  0  0  0  0  0  0  0  0  0
   14.4620   16.0880   36.6870 C   0  0  0  0  0  0  0  0  0  0  0  0
   14.9700   15.7750   37.8850 F   0  0  0  0  0  0  0  0  0  0  0  0
   13.3950   15.3580   36.1880 C   0  0  0  0  0  0  0  0  0  0  0  0
   12.8450   15.7010   34.9490 C   0  0  0  0  0  0  0  0  0  0  0  0
   11.6740   14.9420   34.3820 C   0  0  0  0  0  0  0  0  0  0  0  0
   12.0310   13.8060   33.7210 F   0  0  0  0  0  0  0  0  0  0  0  0
   10.7880   14.5570   35.3390 F   0  0  0  0  0  0  0  0  0  0  0  0
   10.9620   15.6840   33.4890 F   0  0  0  0  0  0  0  0  0  0  0  0
   13.4020   16.7770   34.2320 C   0  0  0  0  0  0  0  0  0  0  0  0
   13.7730   21.5740   34.9370 C   0  0  0  0  0  0  0  0  0  0  0  0
   13.6630   22.0880   33.5620 C   0  0  0  0  0  0  0  0  0  0  0  0
   14.0700   23.3970   33.2470 C   0  0  0  0  0  0  0  0  0  0  0  0
   14.0090   23.8760   31.9360 C   0  0  0  0  0  0  0  0  0  0  0  0
   13.5140   23.0560   30.9330 C   0  0  0  0  0  0  0  0  0  0  0  0
   13.4490   23.5150   29.6770 F   0  0  0  0  0  0  0  0  0  0  0  0
   13.0800   21.7660   31.2190 C   0  0  0  0  0  0  0  0  0  0  0  0
   13.1550   21.2830   32.5310 C   0  0  0  0  0  0  0  0  0  0  0  0
   12.9780   22.0300   35.9240 N   0  0  0  0  0  0  0  0  0  0  0  0
   12.7480   20.5400   39.2720 C   0  0  0  0  0  0  0  0  0  0  0  0
   12.0230   20.6760   40.4600 C   0  0  0  0  0  0  0  0  0  0  0  0
   10.6103   23.7352   39.8993 H   0  0  0  0  0  0  0  0  0  0  0  0
   11.9387   23.5136   37.7935 H   0  0  0  0  0  0  0  0  0  0  0  0
   14.9185   19.8715   37.5132 H   0  0  0  0  0  0  0  0  0  0  0  0
   16.1343   20.3174   33.9507 H   0  0  0  0  0  0  0  0  0  0  0  0
   16.2764   19.2502   35.4341 H   0  0  0  0  0  0  0  0  0  0  0  0
   14.8920   18.5970   32.9920 H   0  0  0  0  0  0  0  0  0  0  0  0
   15.8436   17.7215   36.4007 H   0  0  0  0  0  0  0  0  0  0  0  0
   12.9837   14.5149   36.7624 H   0  0  0  0  0  0  0  0  0  0  0  0
   12.9520   17.0707   33.2722 H   0  0  0  0  0  0  0  0  0  0  0  0
   14.4426   24.0546   34.0462 H   0  0  0  0  0  0  0  0  0  0  0  0
   14.3507   24.8949   31.7013 H   0  0  0  0  0  0  0  0  0  0  0  0
   12.6794   21.1277   30.4176 H   0  0  0  0  0  0  0  0  0  0  0  0
   12.8123   20.2622   32.7558 H   0  0  0  0  0  0  0  0  0  0  0  0
   13.3580   19.6402   39.1036 H   0  0  0  0  0  0  0  0  0  0  0  0
   12.0626   19.8803   41.2185 H   0  0  0  0  0  0  0  0  0  0  0  0
  1  2  2  0
  2  3  1  0
  2  4  1  0
  4  5  2  0
  5  6  1  0
  6  7  2  0
  7  8  1  0
  8  9  1  0
  9 10  2  0
 10 11  1  0
 11 12  1  0
 12 13  1  0
 13 14  2  0
 14 15  1  0
 15 16  1  0
 15 17  2  0
 17 18  1  0
 18 19  1  0
 19 20  1  0
 19 21  1  0
 19 22  1  0
 18 23  2  0
 10 24  1  0
 24 25  1  0
 25 26  2  0
 26 27  1  0
 27 28  2  0
 28 29  1  0
 28 30  1  0
 30 31  2  0
 24 32  2  0
  7 33  1  0
 33 34  2  0
 34  4  1  0
 32  8  1  0
 23 13  1  0
 31 25  1  0
  5 35  1  0
  6 36  1  0
  9 37  1  0
 11 38  1  0
 11 39  1  0
 12 40  1  0
 14 41  1  0
 17 42  1  0
 23 43  1  0
 26 44  1  0
 27 45  1  0
 30 46  1  0
 31 47  1  0
 33 48  1  0
 34 49  1  0
M  CHG  1   3  -1
M  END
>  <meeko>  (11) 
{"is_sidechain": [false], "free_energy": -8.154, "intermolecular_energy": -12.019, "internal_energy": -1.248}

> <PREPARED_BY>
siam chowdhury
Computational and Medicinal Chemistry
[Dr. Alam's Research Team] www.alamresearch.org
Arkansas State University

$$$$
25sa23_out
     RDKit          3D

 49 52  0  0  0  0  0  0  0  0999 V2000
   10.3670   22.8260   42.5840 O   0  0  0  0  0  0  0  0  0  0  0  0
   10.4060   21.8740   41.8230 C   0  0  0  0  0  0  0  0  0  0  0  0
    9.6660   20.7610   42.0030 O   0  0  0  0  0  0  0  0  0  0  0  0
   11.2470   21.8620   40.5960 C   0  0  0  0  0  0  0  0  0  0  0  0
   11.2350   22.8900   39.6450 C   0  0  0  0  0  0  0  0  0  0  0  0
   12.0040   22.7800   38.4750 C   0  0  0  0  0  0  0  0  0  0  0  0
   12.7660   21.6290   38.2370 C   0  0  0  0  0  0  0  0  0  0  0  0
   13.4630   21.4730   37.0030 N   0  0  0  0  0  0  0  0  0  0  0  0
   14.5470   20.6640   36.7740 C   0  0  0  0  0  0  0  0  0  0  0  0
   14.8220   20.7140   35.4260 C   0  0  0  0  0  0  0  0  0  0  0  0
   15.8490   19.8980   34.7160 C   0  0  0  0  0  0  0  0  0  0  0  0
   15.3220   19.1050   33.6070 N   0  0  0  0  0  0  0  0  0  0  0  0
   14.3470   18.1400   33.8750 C   0  0  0  0  0  0  0  0  0  0  0  0
   13.2480   17.9120   33.0440 C   0  0  0  0  0  0  0  0  0  0  0  0
   12.3450   16.8910   33.3250 C   0  0  0  0  0  0  0  0  0  0  0  0
   11.2910   16.7090   32.5200 F   0  0  0  0  0  0  0  0  0  0  0  0
   12.5210   16.0570   34.4180 C   0  0  0  0  0  0  0  0  0  0  0  0
   13.6350   16.2280   35.2440 C   0  0  0  0  0  0  0  0  0  0  0  0
   13.8700   15.3290   36.4300 C   0  0  0  0  0  0  0  0  0  0  0  0
   14.1430   16.0070   37.5790 F   0  0  0  0  0  0  0  0  0  0  0  0
   12.7980   14.5380   36.7050 F   0  0  0  0  0  0  0  0  0  0  0  0
   14.9200   14.4840   36.2370 F   0  0  0  0  0  0  0  0  0  0  0  0
   14.5480   17.2590   34.9490 C   0  0  0  0  0  0  0  0  0  0  0  0
   13.9010   21.6680   34.9010 C   0  0  0  0  0  0  0  0  0  0  0  0
   13.7880   22.1530   33.5160 C   0  0  0  0  0  0  0  0  0  0  0  0
   14.5070   23.2820   33.0850 C   0  0  0  0  0  0  0  0  0  0  0  0
   14.4370   23.7200   31.7610 C   0  0  0  0  0  0  0  0  0  0  0  0
   13.6250   23.0470   30.8620 C   0  0  0  0  0  0  0  0  0  0  0  0
   13.5510   23.4690   29.5930 F   0  0  0  0  0  0  0  0  0  0  0  0
   12.8820   21.9410   31.2650 C   0  0  0  0  0  0  0  0  0  0  0  0
   12.9640   21.4950   32.5890 C   0  0  0  0  0  0  0  0  0  0  0  0
   13.0600   22.0910   35.8640 N   0  0  0  0  0  0  0  0  0  0  0  0
   12.7920   20.6110   39.2030 C   0  0  0  0  0  0  0  0  0  0  0  0
   12.0340   20.7280   40.3720 C   0  0  0  0  0  0  0  0  0  0  0  0
   10.6211   23.7868   39.8150 H   0  0  0  0  0  0  0  0  0  0  0  0
   12.0079   23.6008   37.7427 H   0  0  0  0  0  0  0  0  0  0  0  0
   15.0958   20.0820   37.5290 H   0  0  0  0  0  0  0  0  0  0  0  0
   16.6166   20.5787   34.3192 H   0  0  0  0  0  0  0  0  0  0  0  0
   16.2505   19.1854   35.4515 H   0  0  0  0  0  0  0  0  0  0  0  0
   15.6480   19.2480   32.6900 H   0  0  0  0  0  0  0  0  0  0  0  0
   13.0945   18.5459   32.1582 H   0  0  0  0  0  0  0  0  0  0  0  0
   11.7883   15.2655   34.6338 H   0  0  0  0  0  0  0  0  0  0  0  0
   15.4430   17.3770   35.5775 H   0  0  0  0  0  0  0  0  0  0  0  0
   15.1353   23.8294   33.8031 H   0  0  0  0  0  0  0  0  0  0  0  0
   15.0218   24.5924   31.4341 H   0  0  0  0  0  0  0  0  0  0  0  0
   12.2331   21.4197   30.5458 H   0  0  0  0  0  0  0  0  0  0  0  0
   12.3772   20.6204   32.9065 H   0  0  0  0  0  0  0  0  0  0  0  0
   13.4116   19.7170   39.0396 H   0  0  0  0  0  0  0  0  0  0  0  0
   12.0569   19.9224   41.1207 H   0  0  0  0  0  0  0  0  0  0  0  0
  1  2  2  0
  2  3  1  0
  2  4  1  0
  4  5  2  0
  5  6  1  0
  6  7  2  0
  7  8  1  0
  8  9  1  0
  9 10  2  0
 10 11  1  0
 11 12  1  0
 12 13  1  0
 13 14  2  0
 14 15  1  0
 15 16  1  0
 15 17  2  0
 17 18  1  0
 18 19  1  0
 19 20  1  0
 19 21  1  0
 19 22  1  0
 18 23  2  0
 10 24  1  0
 24 25  1  0
 25 26  2  0
 26 27  1  0
 27 28  2  0
 28 29  1  0
 28 30  1  0
 30 31  2  0
 24 32  2  0
  7 33  1  0
 33 34  2  0
 34  4  1  0
 32  8  1  0
 23 13  1  0
 31 25  1  0
  5 35  1  0
  6 36  1  0
  9 37  1  0
 11 38  1  0
 11 39  1  0
 12 40  1  0
 14 41  1  0
 17 42  1  0
 23 43  1  0
 26 44  1  0
 27 45  1  0
 30 46  1  0
 31 47  1  0
 33 48  1  0
 34 49  1  0
M  CHG  1   3  -1
M  END
>  <meeko>  (12) 
{"is_sidechain": [false], "free_energy": -8.153, "intermolecular_energy": -11.678, "internal_energy": -1.588}

> <PREPARED_BY>
siam chowdhury
Computational and Medicinal Chemistry
[Dr. Alam's Research Team] www.alamresearch.org
Arkansas State University

$$$$
25sa23_out
     RDKit          3D

 49 52  0  0  0  0  0  0  0  0999 V2000
   12.6940   22.1810   42.7120 O   0  0  0  0  0  0  0  0  0  0  0  0
   12.0780   21.4940   41.9140 C   0  0  0  0  0  0  0  0  0  0  0  0
   10.8740   20.9540   42.1880 O   0  0  0  0  0  0  0  0  0  0  0  0
   12.5810   21.2130   40.5430 C   0  0  0  0  0  0  0  0  0  0  0  0
   12.1460   21.9070   39.4060 C   0  0  0  0  0  0  0  0  0  0  0  0
   12.6120   21.5430   38.1330 C   0  0  0  0  0  0  0  0  0  0  0  0
   13.4930   20.4630   37.9870 C   0  0  0  0  0  0  0  0  0  0  0  0
   13.8830   20.0270   36.6860 N   0  0  0  0  0  0  0  0  0  0  0  0
   14.1690   18.7400   36.3080 C   0  0  0  0  0  0  0  0  0  0  0  0
   14.3710   18.7450   34.9460 C   0  0  0  0  0  0  0  0  0  0  0  0
   14.5950   17.5420   34.0950 C   0  0  0  0  0  0  0  0  0  0  0  0
   14.4850   16.2720   34.8110 N   0  0  0  0  0  0  0  0  0  0  0  0
   13.2340   15.6540   34.8940 C   0  0  0  0  0  0  0  0  0  0  0  0
   12.7810   14.9940   36.0400 C   0  0  0  0  0  0  0  0  0  0  0  0
   11.4990   14.4560   36.0880 C   0  0  0  0  0  0  0  0  0  0  0  0
   11.1010   13.8130   37.1930 F   0  0  0  0  0  0  0  0  0  0  0  0
   10.6270   14.5800   35.0190 C   0  0  0  0  0  0  0  0  0  0  0  0
   11.0310   15.2750   33.8760 C   0  0  0  0  0  0  0  0  0  0  0  0
   10.1040   15.4460   32.7010 C   0  0  0  0  0  0  0  0  0  0  0  0
   10.1840   14.4330   31.7940 F   0  0  0  0  0  0  0  0  0  0  0  0
    8.7970   15.5150   33.0720 F   0  0  0  0  0  0  0  0  0  0  0  0
   10.3580   16.5890   32.0060 F   0  0  0  0  0  0  0  0  0  0  0  0
   12.3280   15.8220   33.8360 C   0  0  0  0  0  0  0  0  0  0  0  0
   14.2810   20.1180   34.5690 C   0  0  0  0  0  0  0  0  0  0  0  0
   14.4720   20.7060   33.2330 C   0  0  0  0  0  0  0  0  0  0  0  0
   15.7610   20.9080   32.7110 C   0  0  0  0  0  0  0  0  0  0  0  0
   15.9470   21.4250   31.4270 C   0  0  0  0  0  0  0  0  0  0  0  0
   14.8420   21.7700   30.6640 C   0  0  0  0  0  0  0  0  0  0  0  0
   15.0180   22.2710   29.4350 F   0  0  0  0  0  0  0  0  0  0  0  0
   13.5540   21.6050   31.1640 C   0  0  0  0  0  0  0  0  0  0  0  0
   13.3690   21.0730   32.4460 C   0  0  0  0  0  0  0  0  0  0  0  0
   13.9480   20.8780   35.6300 N   0  0  0  0  0  0  0  0  0  0  0  0
   13.9420   19.7850   39.1290 C   0  0  0  0  0  0  0  0  0  0  0  0
   13.4860   20.1570   40.3970 C   0  0  0  0  0  0  0  0  0  0  0  0
   11.4362   22.7407   39.5116 H   0  0  0  0  0  0  0  0  0  0  0  0
   12.2847   22.1072   37.2473 H   0  0  0  0  0  0  0  0  0  0  0  0
   14.2265   17.8644   36.9713 H   0  0  0  0  0  0  0  0  0  0  0  0
   13.8492   17.5478   33.2864 H   0  0  0  0  0  0  0  0  0  0  0  0
   15.6281   17.6063   33.7227 H   0  0  0  0  0  0  0  0  0  0  0  0
   15.2770   15.8610   35.2260 H   0  0  0  0  0  0  0  0  0  0  0  0
   13.4446   14.8991   36.9122 H   0  0  0  0  0  0  0  0  0  0  0  0
    9.6227   14.1341   35.0695 H   0  0  0  0  0  0  0  0  0  0  0  0
   12.6393   16.3966   32.9512 H   0  0  0  0  0  0  0  0  0  0  0  0
   16.6384   20.6546   33.3241 H   0  0  0  0  0  0  0  0  0  0  0  0
   16.9620   21.5574   31.0243 H   0  0  0  0  0  0  0  0  0  0  0  0
   12.6843   21.8914   30.5544 H   0  0  0  0  0  0  0  0  0  0  0  0
   12.3504   20.9415   32.8399 H   0  0  0  0  0  0  0  0  0  0  0  0
   14.6572   18.9555   39.0267 H   0  0  0  0  0  0  0  0  0  0  0  0
   13.8415   19.6154   41.2860 H   0  0  0  0  0  0  0  0  0  0  0  0
  1  2  2  0
  2  3  1  0
  2  4  1  0
  4  5  2  0
  5  6  1  0
  6  7  2  0
  7  8  1  0
  8  9  1  0
  9 10  2  0
 10 11  1  0
 11 12  1  0
 12 13  1  0
 13 14  2  0
 14 15  1  0
 15 16  1  0
 15 17  2  0
 17 18  1  0
 18 19  1  0
 19 20  1  0
 19 21  1  0
 19 22  1  0
 18 23  2  0
 10 24  1  0
 24 25  1  0
 25 26  2  0
 26 27  1  0
 27 28  2  0
 28 29  1  0
 28 30  1  0
 30 31  2  0
 24 32  2  0
  7 33  1  0
 33 34  2  0
 34  4  1  0
 32  8  1  0
 23 13  1  0
 31 25  1  0
  5 35  1  0
  6 36  1  0
  9 37  1  0
 11 38  1  0
 11 39  1  0
 12 40  1  0
 14 41  1  0
 17 42  1  0
 23 43  1  0
 26 44  1  0
 27 45  1  0
 30 46  1  0
 31 47  1  0
 33 48  1  0
 34 49  1  0
M  CHG  1   3  -1
M  END
>  <meeko>  (13) 
{"is_sidechain": [false], "free_energy": -8.087, "intermolecular_energy": -11.839, "internal_energy": -1.334}

> <PREPARED_BY>
siam chowdhury
Computational and Medicinal Chemistry
[Dr. Alam's Research Team] www.alamresearch.org
Arkansas State University

$$$$
25sa23_out
     RDKit          3D

 49 52  0  0  0  0  0  0  0  0999 V2000
    8.3830   14.3300   30.7770 O   0  0  0  0  0  0  0  0  0  0  0  0
    8.4530   14.7200   31.9300 C   0  0  0  0  0  0  0  0  0  0  0  0
    7.3930   14.7410   32.7630 O   0  0  0  0  0  0  0  0  0  0  0  0
    9.7280   15.1790   32.5440 C   0  0  0  0  0  0  0  0  0  0  0  0
   10.2920   14.5860   33.6820 C   0  0  0  0  0  0  0  0  0  0  0  0
   11.4620   15.1150   34.2490 C   0  0  0  0  0  0  0  0  0  0  0  0
   12.0580   16.2580   33.7000 C   0  0  0  0  0  0  0  0  0  0  0  0
   13.1850   16.8560   34.3380 N   0  0  0  0  0  0  0  0  0  0  0  0
   13.8830   17.9530   33.9020 C   0  0  0  0  0  0  0  0  0  0  0  0
   14.8050   18.2690   34.8740 C   0  0  0  0  0  0  0  0  0  0  0  0
   15.7000   19.4610   34.8700 C   0  0  0  0  0  0  0  0  0  0  0  0
   15.0170   20.7240   35.1430 N   0  0  0  0  0  0  0  0  0  0  0  0
   15.0450   21.2360   36.4440 C   0  0  0  0  0  0  0  0  0  0  0  0
   16.2240   21.6080   37.0950 C   0  0  0  0  0  0  0  0  0  0  0  0
   16.1850   22.1750   38.3640 C   0  0  0  0  0  0  0  0  0  0  0  0
   17.3320   22.5040   38.9700 F   0  0  0  0  0  0  0  0  0  0  0  0
   14.9810   22.4130   39.0090 C   0  0  0  0  0  0  0  0  0  0  0  0
   13.7810   22.0960   38.3660 C   0  0  0  0  0  0  0  0  0  0  0  0
   12.4520   22.3550   39.0280 C   0  0  0  0  0  0  0  0  0  0  0  0
   11.6990   21.2330   39.1940 F   0  0  0  0  0  0  0  0  0  0  0  0
   12.5840   22.9070   40.2640 F   0  0  0  0  0  0  0  0  0  0  0  0
   11.6800   23.2190   38.3120 F   0  0  0  0  0  0  0  0  0  0  0  0
   13.8280   21.5270   37.0790 C   0  0  0  0  0  0  0  0  0  0  0  0
   14.6690   17.2410   35.8530 C   0  0  0  0  0  0  0  0  0  0  0  0
   15.4500   17.0540   37.0860 C   0  0  0  0  0  0  0  0  0  0  0  0
   15.4370   18.0250   38.1040 C   0  0  0  0  0  0  0  0  0  0  0  0
   16.1420   17.8330   39.2940 C   0  0  0  0  0  0  0  0  0  0  0  0
   16.8900   16.6770   39.4650 C   0  0  0  0  0  0  0  0  0  0  0  0
   17.5720   16.4940   40.6030 F   0  0  0  0  0  0  0  0  0  0  0  0
   16.9430   15.7110   38.4660 C   0  0  0  0  0  0  0  0  0  0  0  0
   16.2240   15.8980   37.2790 C   0  0  0  0  0  0  0  0  0  0  0  0
   13.6570   16.4120   35.5300 N   0  0  0  0  0  0  0  0  0  0  0  0
   11.5020   16.8350   32.5490 C   0  0  0  0  0  0  0  0  0  0  0  0
   10.3430   16.3000   31.9790 C   0  0  0  0  0  0  0  0  0  0  0  0
    9.8158   13.7026   34.1325 H   0  0  0  0  0  0  0  0  0  0  0  0
   11.9127   14.6304   35.1277 H   0  0  0  0  0  0  0  0  0  0  0  0
   13.7335   18.4833   32.9499 H   0  0  0  0  0  0  0  0  0  0  0  0
   16.4736   19.3141   35.6381 H   0  0  0  0  0  0  0  0  0  0  0  0
   16.1167   19.5400   33.8550 H   0  0  0  0  0  0  0  0  0  0  0  0
   14.5480   21.2050   34.4250 H   0  0  0  0  0  0  0  0  0  0  0  0
   17.1929   21.4507   36.5986 H   0  0  0  0  0  0  0  0  0  0  0  0
   14.9702   22.8481   40.0192 H   0  0  0  0  0  0  0  0  0  0  0  0
   12.8855   21.3046   36.5573 H   0  0  0  0  0  0  0  0  0  0  0  0
   14.8616   18.9514   37.9601 H   0  0  0  0  0  0  0  0  0  0  0  0
   16.1046   18.5920   40.0893 H   0  0  0  0  0  0  0  0  0  0  0  0
   17.5477   14.8031   38.6078 H   0  0  0  0  0  0  0  0  0  0  0  0
   16.2658   15.1323   36.4903 H   0  0  0  0  0  0  0  0  0  0  0  0
   11.9807   17.7137   32.0920 H   0  0  0  0  0  0  0  0  0  0  0  0
    9.9120   16.7643   31.0797 H   0  0  0  0  0  0  0  0  0  0  0  0
  1  2  2  0
  2  3  1  0
  2  4  1  0
  4  5  2  0
  5  6  1  0
  6  7  2  0
  7  8  1  0
  8  9  1  0
  9 10  2  0
 10 11  1  0
 11 12  1  0
 12 13  1  0
 13 14  2  0
 14 15  1  0
 15 16  1  0
 15 17  2  0
 17 18  1  0
 18 19  1  0
 19 20  1  0
 19 21  1  0
 19 22  1  0
 18 23  2  0
 10 24  1  0
 24 25  1  0
 25 26  2  0
 26 27  1  0
 27 28  2  0
 28 29  1  0
 28 30  1  0
 30 31  2  0
 24 32  2  0
  7 33  1  0
 33 34  2  0
 34  4  1  0
 32  8  1  0
 23 13  1  0
 31 25  1  0
  5 35  1  0
  6 36  1  0
  9 37  1  0
 11 38  1  0
 11 39  1  0
 12 40  1  0
 14 41  1  0
 17 42  1  0
 23 43  1  0
 26 44  1  0
 27 45  1  0
 30 46  1  0
 31 47  1  0
 33 48  1  0
 34 49  1  0
M  CHG  1   3  -1
M  END
>  <meeko>  (14) 
{"is_sidechain": [false], "free_energy": -8.053, "intermolecular_energy": -11.42, "internal_energy": -1.705}

> <PREPARED_BY>
siam chowdhury
Computational and Medicinal Chemistry
[Dr. Alam's Research Team] www.alamresearch.org
Arkansas State University

$$$$
25sa23_out
     RDKit          3D

 49 52  0  0  0  0  0  0  0  0999 V2000
    1.2230   26.1580   31.4870 O   0  0  0  0  0  0  0  0  0  0  0  0
    2.3910   25.8790   31.2740 C   0  0  0  0  0  0  0  0  0  0  0  0
    3.4190   26.5520   31.8290 O   0  0  0  0  0  0  0  0  0  0  0  0
    2.7970   24.7400   30.4070 C   0  0  0  0  0  0  0  0  0  0  0  0
    2.8530   23.4140   30.8560 C   0  0  0  0  0  0  0  0  0  0  0  0
    3.3120   22.3980   30.0020 C   0  0  0  0  0  0  0  0  0  0  0  0
    3.7450   22.7070   28.7060 C   0  0  0  0  0  0  0  0  0  0  0  0
    4.3090   21.6930   27.8770 N   0  0  0  0  0  0  0  0  0  0  0  0
    4.8460   20.5020   28.2950 C   0  0  0  0  0  0  0  0  0  0  0  0
    5.1530   19.7700   27.1710 C   0  0  0  0  0  0  0  0  0  0  0  0
    5.6530   18.3660   27.1560 C   0  0  0  0  0  0  0  0  0  0  0  0
    4.5980   17.3550   27.1080 N   0  0  0  0  0  0  0  0  0  0  0  0
    4.2210   16.7210   28.2960 C   0  0  0  0  0  0  0  0  0  0  0  0
    2.9460   16.8420   28.8550 C   0  0  0  0  0  0  0  0  0  0  0  0
    2.6060   16.1330   30.0030 C   0  0  0  0  0  0  0  0  0  0  0  0
    1.3830   16.2840   30.5270 F   0  0  0  0  0  0  0  0  0  0  0  0
    3.5050   15.2700   30.6090 C   0  0  0  0  0  0  0  0  0  0  0  0
    4.7730   15.0900   30.0480 C   0  0  0  0  0  0  0  0  0  0  0  0
    5.7710   14.1470   30.6670 C   0  0  0  0  0  0  0  0  0  0  0  0
    5.6870   14.0830   32.0250 F   0  0  0  0  0  0  0  0  0  0  0  0
    5.6300   12.8700   30.2210 F   0  0  0  0  0  0  0  0  0  0  0  0
    7.0560   14.5020   30.3900 F   0  0  0  0  0  0  0  0  0  0  0  0
    5.1080   15.8060   28.8830 C   0  0  0  0  0  0  0  0  0  0  0  0
    4.8550   20.6380   26.0780 C   0  0  0  0  0  0  0  0  0  0  0  0
    5.0470   20.3850   24.6410 C   0  0  0  0  0  0  0  0  0  0  0  0
    6.3250   20.4650   24.0590 C   0  0  0  0  0  0  0  0  0  0  0  0
    6.5190   20.1830   22.7040 C   0  0  0  0  0  0  0  0  0  0  0  0
    5.4300   19.8460   21.9150 C   0  0  0  0  0  0  0  0  0  0  0  0
    5.6140   19.5820   20.6140 F   0  0  0  0  0  0  0  0  0  0  0  0
    4.1510   19.7840   22.4570 C   0  0  0  0  0  0  0  0  0  0  0  0
    3.9600   20.0530   23.8180 C   0  0  0  0  0  0  0  0  0  0  0  0
    4.3100   21.7860   26.5230 N   0  0  0  0  0  0  0  0  0  0  0  0
    3.6670   24.0340   28.2550 C   0  0  0  0  0  0  0  0  0  0  0  0
    3.1990   25.0420   29.1020 C   0  0  0  0  0  0  0  0  0  0  0  0
    2.5365   23.1680   31.8804 H   0  0  0  0  0  0  0  0  0  0  0  0
    3.3316   21.3554   30.3521 H   0  0  0  0  0  0  0  0  0  0  0  0
    5.0026   20.1893   29.3379 H   0  0  0  0  0  0  0  0  0  0  0  0
    6.2944   18.2376   26.2717 H   0  0  0  0  0  0  0  0  0  0  0  0
    6.1948   18.2131   28.1010 H   0  0  0  0  0  0  0  0  0  0  0  0
    4.1630   17.1250   26.2570 H   0  0  0  0  0  0  0  0  0  0  0  0
    2.2045   17.5036   28.3833 H   0  0  0  0  0  0  0  0  0  0  0  0
    3.2230   14.7303   31.5251 H   0  0  0  0  0  0  0  0  0  0  0  0
    6.0925   15.6435   28.4201 H   0  0  0  0  0  0  0  0  0  0  0  0
    7.1855   20.7541   24.6803 H   0  0  0  0  0  0  0  0  0  0  0  0
    7.5275   20.2281   22.2671 H   0  0  0  0  0  0  0  0  0  0  0  0
    3.2929   19.5248   21.8195 H   0  0  0  0  0  0  0  0  0  0  0  0
    2.9479   20.0036   24.2461 H   0  0  0  0  0  0  0  0  0  0  0  0
    3.9761   24.2818   27.2288 H   0  0  0  0  0  0  0  0  0  0  0  0
    3.1464   26.0794   28.7401 H   0  0  0  0  0  0  0  0  0  0  0  0
  1  2  2  0
  2  3  1  0
  2  4  1  0
  4  5  2  0
  5  6  1  0
  6  7  2  0
  7  8  1  0
  8  9  1  0
  9 10  2  0
 10 11  1  0
 11 12  1  0
 12 13  1  0
 13 14  2  0
 14 15  1  0
 15 16  1  0
 15 17  2  0
 17 18  1  0
 18 19  1  0
 19 20  1  0
 19 21  1  0
 19 22  1  0
 18 23  2  0
 10 24  1  0
 24 25  1  0
 25 26  2  0
 26 27  1  0
 27 28  2  0
 28 29  1  0
 28 30  1  0
 30 31  2  0
 24 32  2  0
  7 33  1  0
 33 34  2  0
 34  4  1  0
 32  8  1  0
 23 13  1  0
 31 25  1  0
  5 35  1  0
  6 36  1  0
  9 37  1  0
 11 38  1  0
 11 39  1  0
 12 40  1  0
 14 41  1  0
 17 42  1  0
 23 43  1  0
 26 44  1  0
 27 45  1  0
 30 46  1  0
 31 47  1  0
 33 48  1  0
 34 49  1  0
M  CHG  1   3  -1
M  END
>  <meeko>  (15) 
{"is_sidechain": [false], "free_energy": -7.966, "intermolecular_energy": -11.782, "internal_energy": -1.22}

> <PREPARED_BY>
siam chowdhury
Computational and Medicinal Chemistry
[Dr. Alam's Research Team] www.alamresearch.org
Arkansas State University

$$$$
25sa23_out
     RDKit          3D

 49 52  0  0  0  0  0  0  0  0999 V2000
   15.6260   21.6260   29.5320 O   0  0  0  0  0  0  0  0  0  0  0  0
   14.7910   21.7280   30.4150 C   0  0  0  0  0  0  0  0  0  0  0  0
   13.6100   22.3530   30.2390 O   0  0  0  0  0  0  0  0  0  0  0  0
   14.9810   21.1390   31.7680 C   0  0  0  0  0  0  0  0  0  0  0  0
   13.9920   20.4020   32.4320 C   0  0  0  0  0  0  0  0  0  0  0  0
   14.2150   19.9350   33.7370 C   0  0  0  0  0  0  0  0  0  0  0  0
   15.4170   20.2270   34.3960 C   0  0  0  0  0  0  0  0  0  0  0  0
   15.6000   19.8420   35.7570 N   0  0  0  0  0  0  0  0  0  0  0  0
   14.9240   20.3360   36.8430 C   0  0  0  0  0  0  0  0  0  0  0  0
   15.3150   19.6040   37.9410 C   0  0  0  0  0  0  0  0  0  0  0  0
   14.7470   19.7240   39.3140 C   0  0  0  0  0  0  0  0  0  0  0  0
   14.6180   21.0990   39.7930 N   0  0  0  0  0  0  0  0  0  0  0  0
   13.3420   21.5950   40.0750 C   0  0  0  0  0  0  0  0  0  0  0  0
   12.6970   21.3960   41.2980 C   0  0  0  0  0  0  0  0  0  0  0  0
   11.4550   21.9720   41.5470 C   0  0  0  0  0  0  0  0  0  0  0  0
   10.8530   21.7480   42.7220 F   0  0  0  0  0  0  0  0  0  0  0  0
   10.8350   22.7790   40.6060 C   0  0  0  0  0  0  0  0  0  0  0  0
   11.4740   23.0370   39.3910 C   0  0  0  0  0  0  0  0  0  0  0  0
   10.8390   23.9220   38.3500 C   0  0  0  0  0  0  0  0  0  0  0  0
   10.8700   23.3940   37.0950 F   0  0  0  0  0  0  0  0  0  0  0  0
    9.5310   24.1850   38.6160 F   0  0  0  0  0  0  0  0  0  0  0  0
   11.4540   25.1340   38.2600 F   0  0  0  0  0  0  0  0  0  0  0  0
   12.7340   22.4550   39.1480 C   0  0  0  0  0  0  0  0  0  0  0  0
   16.3240   18.7240   37.4510 C   0  0  0  0  0  0  0  0  0  0  0  0
   17.1270   17.7520   38.2120 C   0  0  0  0  0  0  0  0  0  0  0  0
   16.5100   16.7540   38.9860 C   0  0  0  0  0  0  0  0  0  0  0  0
   17.2670   15.8030   39.6740 C   0  0  0  0  0  0  0  0  0  0  0  0
   18.6510   15.8610   39.6160 C   0  0  0  0  0  0  0  0  0  0  0  0
   19.3790   14.9540   40.2810 F   0  0  0  0  0  0  0  0  0  0  0  0
   19.2910   16.8530   38.8790 C   0  0  0  0  0  0  0  0  0  0  0  0
   18.5300   17.7960   38.1780 C   0  0  0  0  0  0  0  0  0  0  0  0
   16.4590   18.8560   36.1180 N   0  0  0  0  0  0  0  0  0  0  0  0
   16.4120   20.9470   33.7190 C   0  0  0  0  0  0  0  0  0  0  0  0
   16.1930   21.4020   32.4150 C   0  0  0  0  0  0  0  0  0  0  0  0
   13.0373   20.1884   31.9291 H   0  0  0  0  0  0  0  0  0  0  0  0
   13.4433   19.3375   34.2444 H   0  0  0  0  0  0  0  0  0  0  0  0
   14.2015   21.1654   36.8376 H   0  0  0  0  0  0  0  0  0  0  0  0
   13.7480   19.2636   39.3151 H   0  0  0  0  0  0  0  0  0  0  0  0
   15.4510   19.2189   39.9916 H   0  0  0  0  0  0  0  0  0  0  0  0
   15.4140   21.6630   39.9140 H   0  0  0  0  0  0  0  0  0  0  0  0
   13.1756   20.7779   42.0719 H   0  0  0  0  0  0  0  0  0  0  0  0
    9.8462   23.2134   40.8147 H   0  0  0  0  0  0  0  0  0  0  0  0
   13.2551   22.6810   38.2060 H   0  0  0  0  0  0  0  0  0  0  0  0
   15.4124   16.7214   39.0510 H   0  0  0  0  0  0  0  0  0  0  0  0
   16.7691   15.0143   40.2572 H   0  0  0  0  0  0  0  0  0  0  0  0
   20.3897   16.8959   38.8474 H   0  0  0  0  0  0  0  0  0  0  0  0
   19.0362   18.5793   37.5947 H   0  0  0  0  0  0  0  0  0  0  0  0
   17.3706   21.1551   34.2168 H   0  0  0  0  0  0  0  0  0  0  0  0
   16.9784   21.9701   31.8950 H   0  0  0  0  0  0  0  0  0  0  0  0
  1  2  2  0
  2  3  1  0
  2  4  1  0
  4  5  2  0
  5  6  1  0
  6  7  2  0
  7  8  1  0
  8  9  1  0
  9 10  2  0
 10 11  1  0
 11 12  1  0
 12 13  1  0
 13 14  2  0
 14 15  1  0
 15 16  1  0
 15 17  2  0
 17 18  1  0
 18 19  1  0
 19 20  1  0
 19 21  1  0
 19 22  1  0
 18 23  2  0
 10 24  1  0
 24 25  1  0
 25 26  2  0
 26 27  1  0
 27 28  2  0
 28 29  1  0
 28 30  1  0
 30 31  2  0
 24 32  2  0
  7 33  1  0
 33 34  2  0
 34  4  1  0
 32  8  1  0
 23 13  1  0
 31 25  1  0
  5 35  1  0
  6 36  1  0
  9 37  1  0
 11 38  1  0
 11 39  1  0
 12 40  1  0
 14 41  1  0
 17 42  1  0
 23 43  1  0
 26 44  1  0
 27 45  1  0
 30 46  1  0
 31 47  1  0
 33 48  1  0
 34 49  1  0
M  CHG  1   3  -1
M  END
>  <meeko>  (16) 
{"is_sidechain": [false], "free_energy": -7.957, "intermolecular_energy": -11.883, "internal_energy": -1.108}

> <PREPARED_BY>
siam chowdhury
Computational and Medicinal Chemistry
[Dr. Alam's Research Team] www.alamresearch.org
Arkansas State University

$$$$
25sa23_out
     RDKit          3D

 49 52  0  0  0  0  0  0  0  0999 V2000
   17.6640   15.2130   40.4490 O   0  0  0  0  0  0  0  0  0  0  0  0
   18.2420   15.9420   39.6610 C   0  0  0  0  0  0  0  0  0  0  0  0
   19.4690   15.6700   39.1740 O   0  0  0  0  0  0  0  0  0  0  0  0
   17.6310   17.1900   39.1280 C   0  0  0  0  0  0  0  0  0  0  0  0
   16.5070   17.8010   39.6990 C   0  0  0  0  0  0  0  0  0  0  0  0
   15.9410   18.9390   39.1020 C   0  0  0  0  0  0  0  0  0  0  0  0
   16.4780   19.4540   37.9150 C   0  0  0  0  0  0  0  0  0  0  0  0
   15.8400   20.5450   37.2530 N   0  0  0  0  0  0  0  0  0  0  0  0
   15.4830   21.7440   37.8150 C   0  0  0  0  0  0  0  0  0  0  0  0
   15.0180   22.5520   36.8020 C   0  0  0  0  0  0  0  0  0  0  0  0
   14.6300   23.9850   36.9400 C   0  0  0  0  0  0  0  0  0  0  0  0
   14.2700   24.3800   38.3000 N   0  0  0  0  0  0  0  0  0  0  0  0
   13.0130   24.0170   38.7940 C   0  0  0  0  0  0  0  0  0  0  0  0
   11.8140   24.3860   38.1800 C   0  0  0  0  0  0  0  0  0  0  0  0
   10.5940   23.9380   38.6800 C   0  0  0  0  0  0  0  0  0  0  0  0
    9.4610   24.3240   38.0810 F   0  0  0  0  0  0  0  0  0  0  0  0
   10.5330   23.0960   39.7780 C   0  0  0  0  0  0  0  0  0  0  0  0
   11.7170   22.6700   40.3880 C   0  0  0  0  0  0  0  0  0  0  0  0
   11.6910   21.7400   41.5730 C   0  0  0  0  0  0  0  0  0  0  0  0
   10.4330   21.4100   41.9770 F   0  0  0  0  0  0  0  0  0  0  0  0
   12.3280   20.5640   41.3280 F   0  0  0  0  0  0  0  0  0  0  0  0
   12.3030   22.2790   42.6640 F   0  0  0  0  0  0  0  0  0  0  0  0
   12.9470   23.1220   39.8730 C   0  0  0  0  0  0  0  0  0  0  0  0
   15.0330   21.7250   35.6400 C   0  0  0  0  0  0  0  0  0  0  0  0
   14.5850   22.0640   34.2790 C   0  0  0  0  0  0  0  0  0  0  0  0
   13.2150   22.1510   33.9720 C   0  0  0  0  0  0  0  0  0  0  0  0
   12.7840   22.5150   32.6940 C   0  0  0  0  0  0  0  0  0  0  0  0
   13.7220   22.7680   31.7050 C   0  0  0  0  0  0  0  0  0  0  0  0
   13.3110   23.1110   30.4770 F   0  0  0  0  0  0  0  0  0  0  0  0
   15.0840   22.6640   31.9720 C   0  0  0  0  0  0  0  0  0  0  0  0
   15.5140   22.3130   33.2570 C   0  0  0  0  0  0  0  0  0  0  0  0
   15.5690   20.5220   35.9240 N   0  0  0  0  0  0  0  0  0  0  0  0
   17.6160   18.8510   37.3590 C   0  0  0  0  0  0  0  0  0  0  0  0
   18.1850   17.7250   37.9610 C   0  0  0  0  0  0  0  0  0  0  0  0
   16.0663   17.3878   40.6183 H   0  0  0  0  0  0  0  0  0  0  0  0
   15.0728   19.4279   39.5681 H   0  0  0  0  0  0  0  0  0  0  0  0
   15.5550   22.0110   38.8797 H   0  0  0  0  0  0  0  0  0  0  0  0
   15.4781   24.6049   36.6138 H   0  0  0  0  0  0  0  0  0  0  0  0
   13.7326   24.1304   36.3207 H   0  0  0  0  0  0  0  0  0  0  0  0
   14.8990   24.8910   38.8560 H   0  0  0  0  0  0  0  0  0  0  0  0
   11.8336   25.0366   37.2932 H   0  0  0  0  0  0  0  0  0  0  0  0
    9.5593   22.7645   40.1678 H   0  0  0  0  0  0  0  0  0  0  0  0
   13.8818   22.7638   40.3289 H   0  0  0  0  0  0  0  0  0  0  0  0
   12.4709   21.9288   34.7510 H   0  0  0  0  0  0  0  0  0  0  0  0
   11.7095   22.6001   32.4743 H   0  0  0  0  0  0  0  0  0  0  0  0
   15.8192   22.8568   31.1768 H   0  0  0  0  0  0  0  0  0  0  0  0
   16.5905   22.2315   33.4678 H   0  0  0  0  0  0  0  0  0  0  0  0
   18.0632   19.2666   36.4440 H   0  0  0  0  0  0  0  0  0  0  0  0
   19.0743   17.2568   37.5138 H   0  0  0  0  0  0  0  0  0  0  0  0
  1  2  2  0
  2  3  1  0
  2  4  1  0
  4  5  2  0
  5  6  1  0
  6  7  2  0
  7  8  1  0
  8  9  1  0
  9 10  2  0
 10 11  1  0
 11 12  1  0
 12 13  1  0
 13 14  2  0
 14 15  1  0
 15 16  1  0
 15 17  2  0
 17 18  1  0
 18 19  1  0
 19 20  1  0
 19 21  1  0
 19 22  1  0
 18 23  2  0
 10 24  1  0
 24 25  1  0
 25 26  2  0
 26 27  1  0
 27 28  2  0
 28 29  1  0
 28 30  1  0
 30 31  2  0
 24 32  2  0
  7 33  1  0
 33 34  2  0
 34  4  1  0
 32  8  1  0
 23 13  1  0
 31 25  1  0
  5 35  1  0
  6 36  1  0
  9 37  1  0
 11 38  1  0
 11 39  1  0
 12 40  1  0
 14 41  1  0
 17 42  1  0
 23 43  1  0
 26 44  1  0
 27 45  1  0
 30 46  1  0
 31 47  1  0
 33 48  1  0
 34 49  1  0
M  CHG  1   3  -1
M  END
>  <meeko>  (17) 
{"is_sidechain": [false], "free_energy": -7.943, "intermolecular_energy": -11.636, "internal_energy": -1.334}

> <PREPARED_BY>
siam chowdhury
Computational and Medicinal Chemistry
[Dr. Alam's Research Team] www.alamresearch.org
Arkansas State University

$$$$
25sa23_out
     RDKit          3D

 49 52  0  0  0  0  0  0  0  0999 V2000
   15.2640   18.4200   33.2020 O   0  0  0  0  0  0  0  0  0  0  0  0
   14.2950   19.1070   33.4760 C   0  0  0  0  0  0  0  0  0  0  0  0
   14.1620   19.7540   34.6510 O   0  0  0  0  0  0  0  0  0  0  0  0
   13.1760   19.3300   32.5200 C   0  0  0  0  0  0  0  0  0  0  0  0
   12.8630   20.5850   31.9820 C   0  0  0  0  0  0  0  0  0  0  0  0
   11.7500   20.7350   31.1400 C   0  0  0  0  0  0  0  0  0  0  0  0
   10.9260   19.6370   30.8560 C   0  0  0  0  0  0  0  0  0  0  0  0
    9.7380   19.8110   30.0870 N   0  0  0  0  0  0  0  0  0  0  0  0
    8.4950   19.3120   30.3800 C   0  0  0  0  0  0  0  0  0  0  0  0
    7.6150   19.8220   29.4530 C   0  0  0  0  0  0  0  0  0  0  0  0
    6.1360   19.6340   29.4610 C   0  0  0  0  0  0  0  0  0  0  0  0
    5.6660   18.5400   28.6140 N   0  0  0  0  0  0  0  0  0  0  0  0
    4.9370   17.5010   29.2020 C   0  0  0  0  0  0  0  0  0  0  0  0
    3.5410   17.4650   29.2260 C   0  0  0  0  0  0  0  0  0  0  0  0
    2.8690   16.3720   29.7650 C   0  0  0  0  0  0  0  0  0  0  0  0
    1.5310   16.3750   29.7910 F   0  0  0  0  0  0  0  0  0  0  0  0
    3.5590   15.2790   30.2650 C   0  0  0  0  0  0  0  0  0  0  0  0
    4.9560   15.2630   30.2130 C   0  0  0  0  0  0  0  0  0  0  0  0
    5.7390   14.0860   30.7320 C   0  0  0  0  0  0  0  0  0  0  0  0
    5.3030   12.8880   30.2520 F   0  0  0  0  0  0  0  0  0  0  0  0
    7.0610   14.1580   30.4160 F   0  0  0  0  0  0  0  0  0  0  0  0
    5.6830   13.9860   32.0890 F   0  0  0  0  0  0  0  0  0  0  0  0
    5.6290   16.3700   29.6620 C   0  0  0  0  0  0  0  0  0  0  0  0
    8.4290   20.5670   28.5500 C   0  0  0  0  0  0  0  0  0  0  0  0
    8.0130   21.2820   27.3320 C   0  0  0  0  0  0  0  0  0  0  0  0
    7.8440   20.5970   26.1150 C   0  0  0  0  0  0  0  0  0  0  0  0
    7.4070   21.2620   24.9670 C   0  0  0  0  0  0  0  0  0  0  0  0
    7.1610   22.6250   25.0210 C   0  0  0  0  0  0  0  0  0  0  0  0
    6.7480   23.2660   23.9200 F   0  0  0  0  0  0  0  0  0  0  0  0
    7.3440   23.3350   26.2040 C   0  0  0  0  0  0  0  0  0  0  0  0
    7.7680   22.6640   27.3570 C   0  0  0  0  0  0  0  0  0  0  0  0
    9.7090   20.5800   28.9690 N   0  0  0  0  0  0  0  0  0  0  0  0
   11.2570   18.3780   31.3810 C   0  0  0  0  0  0  0  0  0  0  0  0
   12.3720   18.2290   32.2100 C   0  0  0  0  0  0  0  0  0  0  0  0
   13.4915   21.4558   32.2202 H   0  0  0  0  0  0  0  0  0  0  0  0
   11.5235   21.7180   30.7013 H   0  0  0  0  0  0  0  0  0  0  0  0
    8.2465   18.6287   31.2054 H   0  0  0  0  0  0  0  0  0  0  0  0
    5.8199   19.4301   30.4947 H   0  0  0  0  0  0  0  0  0  0  0  0
    5.6980   20.5579   29.0554 H   0  0  0  0  0  0  0  0  0  0  0  0
    5.8590   18.5350   27.6500 H   0  0  0  0  0  0  0  0  0  0  0  0
    2.9672   18.3087   28.8149 H   0  0  0  0  0  0  0  0  0  0  0  0
    3.0113   14.4299   30.6998 H   0  0  0  0  0  0  0  0  0  0  0  0
    6.7264   16.3479   29.5901 H   0  0  0  0  0  0  0  0  0  0  0  0
    8.0596   19.5194   26.0666 H   0  0  0  0  0  0  0  0  0  0  0  0
    7.2593   20.7086   24.0279 H   0  0  0  0  0  0  0  0  0  0  0  0
    7.1563   24.4185   26.2328 H   0  0  0  0  0  0  0  0  0  0  0  0
    7.9107   23.2254   28.2922 H   0  0  0  0  0  0  0  0  0  0  0  0
   10.6351   17.5037   31.1385 H   0  0  0  0  0  0  0  0  0  0  0  0
   12.6187   17.2391   32.6213 H   0  0  0  0  0  0  0  0  0  0  0  0
  1  2  2  0
  2  3  1  0
  2  4  1  0
  4  5  2  0
  5  6  1  0
  6  7  2  0
  7  8  1  0
  8  9  1  0
  9 10  2  0
 10 11  1  0
 11 12  1  0
 12 13  1  0
 13 14  2  0
 14 15  1  0
 15 16  1  0
 15 17  2  0
 17 18  1  0
 18 19  1  0
 19 20  1  0
 19 21  1  0
 19 22  1  0
 18 23  2  0
 10 24  1  0
 24 25  1  0
 25 26  2  0
 26 27  1  0
 27 28  2  0
 28 29  1  0
 28 30  1  0
 30 31  2  0
 24 32  2  0
  7 33  1  0
 33 34  2  0
 34  4  1  0
 32  8  1  0
 23 13  1  0
 31 25  1  0
  5 35  1  0
  6 36  1  0
  9 37  1  0
 11 38  1  0
 11 39  1  0
 12 40  1  0
 14 41  1  0
 17 42  1  0
 23 43  1  0
 26 44  1  0
 27 45  1  0
 30 46  1  0
 31 47  1  0
 33 48  1  0
 34 49  1  0
M  CHG  1   3  -1
M  END
>  <meeko>  (18) 
{"is_sidechain": [false], "free_energy": -7.816, "intermolecular_energy": -11.565, "internal_energy": -1.226}

> <PREPARED_BY>
siam chowdhury
Computational and Medicinal Chemistry
[Dr. Alam's Research Team] www.alamresearch.org
Arkansas State University

$$$$
25sa23_out
     RDKit          3D

 49 52  0  0  0  0  0  0  0  0999 V2000
   13.3550   23.7880   29.2130 O   0  0  0  0  0  0  0  0  0  0  0  0
   14.1900   23.0900   29.7640 C   0  0  0  0  0  0  0  0  0  0  0  0
   15.3640   22.7600   29.1900 O   0  0  0  0  0  0  0  0  0  0  0  0
   14.0090   22.5640   31.1430 C   0  0  0  0  0  0  0  0  0  0  0  0
   13.4330   23.3080   32.1810 C   0  0  0  0  0  0  0  0  0  0  0  0
   13.3570   22.7730   33.4770 C   0  0  0  0  0  0  0  0  0  0  0  0
   13.8830   21.5020   33.7480 C   0  0  0  0  0  0  0  0  0  0  0  0
   13.9000   21.0030   35.0840 N   0  0  0  0  0  0  0  0  0  0  0  0
   14.5340   19.8690   35.5240 C   0  0  0  0  0  0  0  0  0  0  0  0
   14.4060   19.8290   36.8940 C   0  0  0  0  0  0  0  0  0  0  0  0
   15.0410   18.8290   37.7990 C   0  0  0  0  0  0  0  0  0  0  0  0
   14.2710   17.5990   37.9680 N   0  0  0  0  0  0  0  0  0  0  0  0
   14.3190   16.6320   36.9600 C   0  0  0  0  0  0  0  0  0  0  0  0
   15.3950   15.7560   36.7920 C   0  0  0  0  0  0  0  0  0  0  0  0
   15.3580   14.7670   35.8130 C   0  0  0  0  0  0  0  0  0  0  0  0
   16.4120   13.9560   35.6630 F   0  0  0  0  0  0  0  0  0  0  0  0
   14.2500   14.6040   34.9980 C   0  0  0  0  0  0  0  0  0  0  0  0
   13.1380   15.4320   35.1710 C   0  0  0  0  0  0  0  0  0  0  0  0
   11.9080   15.2730   34.3160 C   0  0  0  0  0  0  0  0  0  0  0  0
   11.7130   16.3040   33.4470 F   0  0  0  0  0  0  0  0  0  0  0  0
   11.9420   14.1440   33.5580 F   0  0  0  0  0  0  0  0  0  0  0  0
   10.7700   15.1920   35.0590 F   0  0  0  0  0  0  0  0  0  0  0  0
   13.1800   16.4270   36.1670 C   0  0  0  0  0  0  0  0  0  0  0  0
   13.5830   20.9500   37.2160 C   0  0  0  0  0  0  0  0  0  0  0  0
   13.0820   21.3560   38.5380 C   0  0  0  0  0  0  0  0  0  0  0  0
   12.0020   20.6850   39.1390 C   0  0  0  0  0  0  0  0  0  0  0  0
   11.5510   21.0390   40.4130 C   0  0  0  0  0  0  0  0  0  0  0  0
   12.1610   22.0870   41.0850 C   0  0  0  0  0  0  0  0  0  0  0  0
   11.7250   22.4310   42.3040 F   0  0  0  0  0  0  0  0  0  0  0  0
   13.2150   22.7860   40.5070 C   0  0  0  0  0  0  0  0  0  0  0  0
   13.6750   22.4210   39.2360 C   0  0  0  0  0  0  0  0  0  0  0  0
   13.3160   21.6710   36.1110 N   0  0  0  0  0  0  0  0  0  0  0  0
   14.4400   20.7530   32.7010 C   0  0  0  0  0  0  0  0  0  0  0  0
   14.5040   21.2830   31.4090 C   0  0  0  0  0  0  0  0  0  0  0  0
   13.0388   24.3151   31.9800 H   0  0  0  0  0  0  0  0  0  0  0  0
   12.8831   23.3532   34.2825 H   0  0  0  0  0  0  0  0  0  0  0  0
   15.0503   19.1273   34.8968 H   0  0  0  0  0  0  0  0  0  0  0  0
   16.0254   18.5654   37.3849 H   0  0  0  0  0  0  0  0  0  0  0  0
   15.1074   19.2987   38.7914 H   0  0  0  0  0  0  0  0  0  0  0  0
   13.7280   17.4550   38.7760 H   0  0  0  0  0  0  0  0  0  0  0  0
   16.2794   15.8489   37.4394 H   0  0  0  0  0  0  0  0  0  0  0  0
   14.2456   13.8272   34.2191 H   0  0  0  0  0  0  0  0  0  0  0  0
   12.2954   17.0608   36.3275 H   0  0  0  0  0  0  0  0  0  0  0  0
   11.5040   19.8677   38.5968 H   0  0  0  0  0  0  0  0  0  0  0  0
   10.7189   20.4908   40.8790 H   0  0  0  0  0  0  0  0  0  0  0  0
   13.6852   23.6218   41.0458 H   0  0  0  0  0  0  0  0  0  0  0  0
   14.5092   22.9738   38.7794 H   0  0  0  0  0  0  0  0  0  0  0  0
   14.8286   19.7429   32.8977 H   0  0  0  0  0  0  0  0  0  0  0  0
   14.9466   20.6887   30.5960 H   0  0  0  0  0  0  0  0  0  0  0  0
  1  2  2  0
  2  3  1  0
  2  4  1  0
  4  5  2  0
  5  6  1  0
  6  7  2  0
  7  8  1  0
  8  9  1  0
  9 10  2  0
 10 11  1  0
 11 12  1  0
 12 13  1  0
 13 14  2  0
 14 15  1  0
 15 16  1  0
 15 17  2  0
 17 18  1  0
 18 19  1  0
 19 20  1  0
 19 21  1  0
 19 22  1  0
 18 23  2  0
 10 24  1  0
 24 25  1  0
 25 26  2  0
 26 27  1  0
 27 28  2  0
 28 29  1  0
 28 30  1  0
 30 31  2  0
 24 32  2  0
  7 33  1  0
 33 34  2  0
 34  4  1  0
 32  8  1  0
 23 13  1  0
 31 25  1  0
  5 35  1  0
  6 36  1  0
  9 37  1  0
 11 38  1  0
 11 39  1  0
 12 40  1  0
 14 41  1  0
 17 42  1  0
 23 43  1  0
 26 44  1  0
 27 45  1  0
 30 46  1  0
 31 47  1  0
 33 48  1  0
 34 49  1  0
M  CHG  1   3  -1
M  END
>  <meeko>  (19) 
{"is_sidechain": [false], "free_energy": -7.757, "intermolecular_energy": -11.327, "internal_energy": -1.382}

> <PREPARED_BY>
siam chowdhury
Computational and Medicinal Chemistry
[Dr. Alam's Research Team] www.alamresearch.org
Arkansas State University

$$$$
25sa23_out
     RDKit          3D

 49 52  0  0  0  0  0  0  0  0999 V2000
   12.8610   24.2420   28.0300 O   0  0  0  0  0  0  0  0  0  0  0  0
   13.9640   23.9070   28.4280 C   0  0  0  0  0  0  0  0  0  0  0  0
   15.0330   23.7900   27.6150 O   0  0  0  0  0  0  0  0  0  0  0  0
   14.2480   23.6300   29.8620 C   0  0  0  0  0  0  0  0  0  0  0  0
   14.0800   22.3690   30.4500 C   0  0  0  0  0  0  0  0  0  0  0  0
   14.3000   22.1950   31.8250 C   0  0  0  0  0  0  0  0  0  0  0  0
   14.6610   23.2870   32.6260 C   0  0  0  0  0  0  0  0  0  0  0  0
   14.7810   23.1310   34.0390 N   0  0  0  0  0  0  0  0  0  0  0  0
   14.9750   24.1320   34.9570 C   0  0  0  0  0  0  0  0  0  0  0  0
   14.9030   23.5640   36.2080 C   0  0  0  0  0  0  0  0  0  0  0  0
   14.9430   24.3020   37.5030 C   0  0  0  0  0  0  0  0  0  0  0  0
   13.7130   25.0260   37.8180 N   0  0  0  0  0  0  0  0  0  0  0  0
   12.7100   24.3660   38.5350 C   0  0  0  0  0  0  0  0  0  0  0  0
   11.3480   24.5200   38.2640 C   0  0  0  0  0  0  0  0  0  0  0  0
   10.3980   23.7850   38.9650 C   0  0  0  0  0  0  0  0  0  0  0  0
    9.0990   23.9680   38.6960 F   0  0  0  0  0  0  0  0  0  0  0  0
   10.7700   22.8620   39.9300 C   0  0  0  0  0  0  0  0  0  0  0  0
   12.1260   22.6500   40.1930 C   0  0  0  0  0  0  0  0  0  0  0  0
   12.5710   21.6430   41.2220 C   0  0  0  0  0  0  0  0  0  0  0  0
   12.5200   22.1140   42.4990 F   0  0  0  0  0  0  0  0  0  0  0  0
   11.8140   20.5130   41.2080 F   0  0  0  0  0  0  0  0  0  0  0  0
   13.8550   21.2370   41.0250 F   0  0  0  0  0  0  0  0  0  0  0  0
   13.0830   23.3930   39.4750 C   0  0  0  0  0  0  0  0  0  0  0  0
   14.7540   22.1660   35.9660 C   0  0  0  0  0  0  0  0  0  0  0  0
   14.6820   21.0770   36.9540 C   0  0  0  0  0  0  0  0  0  0  0  0
   13.4460   20.5160   37.3210 C   0  0  0  0  0  0  0  0  0  0  0  0
   13.3760   19.4530   38.2250 C   0  0  0  0  0  0  0  0  0  0  0  0
   14.5430   18.9610   38.7900 C   0  0  0  0  0  0  0  0  0  0  0  0
   14.4770   17.9460   39.6620 F   0  0  0  0  0  0  0  0  0  0  0  0
   15.7780   19.5130   38.4660 C   0  0  0  0  0  0  0  0  0  0  0  0
   15.8470   20.5690   37.5490 C   0  0  0  0  0  0  0  0  0  0  0  0
   14.6450   21.9250   34.6450 N   0  0  0  0  0  0  0  0  0  0  0  0
   14.8470   24.5430   32.0290 C   0  0  0  0  0  0  0  0  0  0  0  0
   14.6390   24.7110   30.6570 C   0  0  0  0  0  0  0  0  0  0  0  0
   13.7745   21.5123   29.8313 H   0  0  0  0  0  0  0  0  0  0  0  0
   14.1887   21.1978   32.2758 H   0  0  0  0  0  0  0  0  0  0  0  0
   15.1551   25.1939   34.7337 H   0  0  0  0  0  0  0  0  0  0  0  0
   15.1320   23.5764   38.3079 H   0  0  0  0  0  0  0  0  0  0  0  0
   15.7392   25.0556   37.4130 H   0  0  0  0  0  0  0  0  0  0  0  0
   13.5930   25.9590   37.5320 H   0  0  0  0  0  0  0  0  0  0  0  0
   11.0239   25.2296   37.4885 H   0  0  0  0  0  0  0  0  0  0  0  0
   10.0036   22.3007   40.4846 H   0  0  0  0  0  0  0  0  0  0  0  0
   14.1517   23.2056   39.6559 H   0  0  0  0  0  0  0  0  0  0  0  0
   12.5188   20.9208   36.8892 H   0  0  0  0  0  0  0  0  0  0  0  0
   12.4036   19.0102   38.4863 H   0  0  0  0  0  0  0  0  0  0  0  0
   16.6963   19.1217   38.9281 H   0  0  0  0  0  0  0  0  0  0  0  0
   16.8240   21.0046   37.2925 H   0  0  0  0  0  0  0  0  0  0  0  0
   15.1582   25.4002   32.6440 H   0  0  0  0  0  0  0  0  0  0  0  0
   14.7841   25.7009   30.1998 H   0  0  0  0  0  0  0  0  0  0  0  0
  1  2  2  0
  2  3  1  0
  2  4  1  0
  4  5  2  0
  5  6  1  0
  6  7  2  0
  7  8  1  0
  8  9  1  0
  9 10  2  0
 10 11  1  0
 11 12  1  0
 12 13  1  0
 13 14  2  0
 14 15  1  0
 15 16  1  0
 15 17  2  0
 17 18  1  0
 18 19  1  0
 19 20  1  0
 19 21  1  0
 19 22  1  0
 18 23  2  0
 10 24  1  0
 24 25  1  0
 25 26  2  0
 26 27  1  0
 27 28  2  0
 28 29  1  0
 28 30  1  0
 30 31  2  0
 24 32  2  0
  7 33  1  0
 33 34  2  0
 34  4  1  0
 32  8  1  0
 23 13  1  0
 31 25  1  0
  5 35  1  0
  6 36  1  0
  9 37  1  0
 11 38  1  0
 11 39  1  0
 12 40  1  0
 14 41  1  0
 17 42  1  0
 23 43  1  0
 26 44  1  0
 27 45  1  0
 30 46  1  0
 31 47  1  0
 33 48  1  0
 34 49  1  0
M  CHG  1   3  -1
M  END
>  <meeko>  (20) 
{"is_sidechain": [false], "free_energy": -7.684, "intermolecular_energy": -10.167, "internal_energy": -2.438}

> <PREPARED_BY>
siam chowdhury
Computational and Medicinal Chemistry
[Dr. Alam's Research Team] www.alamresearch.org
Arkansas State University

$$$$
