# siam chowdhury
# Computational and Medicinal Chemistry
# [Dr. Alam's Research Team] www.alamresearch.org
# Arkansas State University
# 5sa23 best docked pose (7L00 FabK)
@<TRIPOS>MOLECULE
5sa23_out
 46 49 0 0 0
SMALL
GASTEIGER

@<TRIPOS>ATOM
      1 O          14.6310   14.1530   34.0560 O.co2   1  UNL1       -0.5446
      2 C          15.2950   14.4290   35.0430 C.2     1  UNL1        0.0717
      3 O          16.2180   13.5900   35.5600 O.co2   1  UNL1       -0.5446
      4 C          15.1330   15.7000   35.7940 C.ar    1  UNL1       -0.0026
      5 C          14.6560   16.8210   35.1040 C.ar    1  UNL1       -0.0509
      6 C          14.5090   18.0480   35.7640 C.ar    1  UNL1       -0.0357
      7 C          14.8510   18.1690   37.1190 C.ar    1  UNL1        0.0654
      8 N          14.7010   19.4270   37.7780 N.ar    1  UNL1       -0.2390
      9 C          15.5730   20.4860   37.7640 C.ar    1  UNL1        0.0365
     10 C          15.0350   21.4790   38.5590 C.ar    1  UNL1        0.0153
     11 C          15.6370   22.8260   38.8200 C.3     1  UNL1        0.0379
     12 N          15.5010   23.7630   37.7020 N.pl3   1  UNL1       -0.3395
     13 C          14.2240   24.1720   37.3040 C.ar    1  UNL1        0.0301
     14 C          13.6120   23.5210   36.2200 C.ar    1  UNL1       -0.0407
     15 C          12.3250   23.8660   35.7910 C.ar    1  UNL1       -0.0573
     16 C          11.6150   24.8520   36.4660 C.ar    1  UNL1       -0.0263
     17 C          12.2000   25.4760   37.5610 C.ar    1  UNL1        0.1251
     18 F          11.5100   26.4130   38.2260 F       1  UNL1       -0.2054
     19 C          13.4840   25.1410   37.9870 C.ar    1  UNL1       -0.0056
     20 C          13.8220   20.9150   39.0630 C.ar    1  UNL1        0.0978
     21 C          12.8660   21.4850   40.0280 C.ar    1  UNL1        0.0026
     22 C          11.7220   22.1750   39.5950 C.ar    1  UNL1       -0.0498
     23 C          10.8050   22.7100   40.5020 C.ar    1  UNL1       -0.0258
     24 C          11.0470   22.5870   41.8600 C.ar    1  UNL1        0.1234
     25 F          10.1770   23.1130   42.7330 F       1  UNL1       -0.2055
     26 C          12.1840   21.9350   42.3220 C.ar    1  UNL1       -0.0258
     27 C          13.0900   21.3840   41.4100 C.ar    1  UNL1       -0.0498
     28 N          13.6130   19.6980   38.5360 N.ar    1  UNL1       -0.1661
     29 C          15.3430   17.0460   37.8040 C.ar    1  UNL1       -0.0357
     30 C          15.4880   15.8190   37.1420 C.ar    1  UNL1       -0.0509
     31 H          14.3954   16.7379   34.0385 H       1  UNL1        0.0625
     32 H          14.1234   18.9209   35.2169 H       1  UNL1        0.0639
     33 H          16.5271   20.5353   37.2188 H       1  UNL1        0.0834
     34 H          15.1416   23.2623   39.6999 H       1  UNL1        0.0512
     35 H          16.7145   22.6696   38.9766 H       1  UNL1        0.0512
     36 H          16.3000   24.1000   37.2360 H       1  UNL1        0.1464
     37 H          14.1567   22.7217   35.6962 H       1  UNL1        0.0636
     38 H          11.8775   23.3590   34.9234 H       1  UNL1        0.0619
     39 H          10.6038   25.1345   36.1378 H       1  UNL1        0.0646
     40 H          13.9172   25.6419   38.8653 H       1  UNL1        0.0665
     41 H          11.5442   22.2968   38.5163 H       1  UNL1        0.0625
     42 H           9.9010   23.2231   40.1421 H       1  UNL1        0.0646
     43 H          12.3710   21.8524   43.4028 H       1  UNL1        0.0646
     44 H          13.9874   20.8662   41.7796 H       1  UNL1        0.0625
     45 H          15.6162   17.1298   38.8662 H       1  UNL1        0.0639
     46 H          15.8822   14.9468   37.6841 H       1  UNL1        0.0625
@<TRIPOS>UNITY_ATOM_ATTR
3 1
charge -1
@<TRIPOS>BOND
     1     1     2   ar
     2     2     3   ar
     3     2     4    1
     4     4     5   ar
     5     5     6   ar
     6     6     7   ar
     7     7     8    1
     8     8     9   ar
     9     9    10   ar
    10    10    11    1
    11    11    12    1
    12    12    13    1
    13    13    14   ar
    14    14    15   ar
    15    15    16   ar
    16    16    17   ar
    17    17    18    1
    18    17    19   ar
    19    10    20   ar
    20    20    21    1
    21    21    22   ar
    22    22    23   ar
    23    23    24   ar
    24    24    25    1
    25    24    26   ar
    26    26    27   ar
    27    20    28   ar
    28     7    29   ar
    29    29    30   ar
    30    30     4   ar
    31    28     8   ar
    32    19    13   ar
    33    27    21   ar
    34     5    31    1
    35     6    32    1
    36     9    33    1
    37    11    34    1
    38    11    35    1
    39    12    36    1
    40    14    37    1
    41    15    38    1
    42    16    39    1
    43    19    40    1
    44    22    41    1
    45    23    42    1
    46    26    43    1
    47    27    44    1
    48    29    45    1
    49    30    46    1
