5sa23_out
     RDKit          3D

 46 49  0  0  0  0  0  0  0  0999 V2000
   14.6310   14.1530   34.0560 O   0  0  0  0  0  0  0  0  0  0  0  0
   15.2950   14.4290   35.0430 C   0  0  0  0  0  0  0  0  0  0  0  0
   16.2180   13.5900   35.5600 O   0  0  0  0  0  0  0  0  0  0  0  0
   15.1330   15.7000   35.7940 C   0  0  0  0  0  0  0  0  0  0  0  0
   14.6560   16.8210   35.1040 C   0  0  0  0  0  0  0  0  0  0  0  0
   14.5090   18.0480   35.7640 C   0  0  0  0  0  0  0  0  0  0  0  0
   14.8510   18.1690   37.1190 C   0  0  0  0  0  0  0  0  0  0  0  0
   14.7010   19.4270   37.7780 N   0  0  0  0  0  0  0  0  0  0  0  0
   15.5730   20.4860   37.7640 C   0  0  0  0  0  0  0  0  0  0  0  0
   15.0350   21.4790   38.5590 C   0  0  0  0  0  0  0  0  0  0  0  0
   15.6370   22.8260   38.8200 C   0  0  0  0  0  0  0  0  0  0  0  0
   15.5010   23.7630   37.7020 N   0  0  0  0  0  0  0  0  0  0  0  0
   14.2240   24.1720   37.3040 C   0  0  0  0  0  0  0  0  0  0  0  0
   13.6120   23.5210   36.2200 C   0  0  0  0  0  0  0  0  0  0  0  0
   12.3250   23.8660   35.7910 C   0  0  0  0  0  0  0  0  0  0  0  0
   11.6150   24.8520   36.4660 C   0  0  0  0  0  0  0  0  0  0  0  0
   12.2000   25.4760   37.5610 C   0  0  0  0  0  0  0  0  0  0  0  0
   11.5100   26.4130   38.2260 F   0  0  0  0  0  0  0  0  0  0  0  0
   13.4840   25.1410   37.9870 C   0  0  0  0  0  0  0  0  0  0  0  0
   13.8220   20.9150   39.0630 C   0  0  0  0  0  0  0  0  0  0  0  0
   12.8660   21.4850   40.0280 C   0  0  0  0  0  0  0  0  0  0  0  0
   11.7220   22.1750   39.5950 C   0  0  0  0  0  0  0  0  0  0  0  0
   10.8050   22.7100   40.5020 C   0  0  0  0  0  0  0  0  0  0  0  0
   11.0470   22.5870   41.8600 C   0  0  0  0  0  0  0  0  0  0  0  0
   10.1770   23.1130   42.7330 F   0  0  0  0  0  0  0  0  0  0  0  0
   12.1840   21.9350   42.3220 C   0  0  0  0  0  0  0  0  0  0  0  0
   13.0900   21.3840   41.4100 C   0  0  0  0  0  0  0  0  0  0  0  0
   13.6130   19.6980   38.5360 N   0  0  0  0  0  0  0  0  0  0  0  0
   15.3430   17.0460   37.8040 C   0  0  0  0  0  0  0  0  0  0  0  0
   15.4880   15.8190   37.1420 C   0  0  0  0  0  0  0  0  0  0  0  0
   14.3954   16.7379   34.0385 H   0  0  0  0  0  0  0  0  0  0  0  0
   14.1234   18.9209   35.2169 H   0  0  0  0  0  0  0  0  0  0  0  0
   16.5271   20.5353   37.2188 H   0  0  0  0  0  0  0  0  0  0  0  0
   15.1416   23.2623   39.6999 H   0  0  0  0  0  0  0  0  0  0  0  0
   16.7145   22.6696   38.9766 H   0  0  0  0  0  0  0  0  0  0  0  0
   16.3000   24.1000   37.2360 H   0  0  0  0  0  0  0  0  0  0  0  0
   14.1567   22.7217   35.6962 H   0  0  0  0  0  0  0  0  0  0  0  0
   11.8775   23.3590   34.9234 H   0  0  0  0  0  0  0  0  0  0  0  0
   10.6038   25.1345   36.1378 H   0  0  0  0  0  0  0  0  0  0  0  0
   13.9172   25.6419   38.8653 H   0  0  0  0  0  0  0  0  0  0  0  0
   11.5442   22.2968   38.5163 H   0  0  0  0  0  0  0  0  0  0  0  0
    9.9010   23.2231   40.1421 H   0  0  0  0  0  0  0  0  0  0  0  0
   12.3710   21.8524   43.4028 H   0  0  0  0  0  0  0  0  0  0  0  0
   13.9874   20.8662   41.7796 H   0  0  0  0  0  0  0  0  0  0  0  0
   15.6162   17.1298   38.8662 H   0  0  0  0  0  0  0  0  0  0  0  0
   15.8822   14.9468   37.6841 H   0  0  0  0  0  0  0  0  0  0  0  0
  1  2  2  0
  2  3  1  0
  2  4  1  0
  4  5  2  0
  5  6  1  0
  6  7  2  0
  7  8  1  0
  8  9  1  0
  9 10  2  0
 10 11  1  0
 11 12  1  0
 12 13  1  0
 13 14  2  0
 14 15  1  0
 15 16  2  0
 16 17  1  0
 17 18  1  0
 17 19  2  0
 10 20  1  0
 20 21  1  0
 21 22  2  0
 22 23  1  0
 23 24  2  0
 24 25  1  0
 24 26  1  0
 26 27  2  0
 20 28  2  0
  7 29  1  0
 29 30  2  0
 30  4  1  0
 28  8  1  0
 19 13  1  0
 27 21  1  0
  5 31  1  0
  6 32  1  0
  9 33  1  0
 11 34  1  0
 11 35  1  0
 12 36  1  0
 14 37  1  0
 15 38  1  0
 16 39  1  0
 19 40  1  0
 22 41  1  0
 23 42  1  0
 26 43  1  0
 27 44  1  0
 29 45  1  0
 30 46  1  0
M  CHG  1   3  -1
M  END
>  <meeko>  (1) 
{"is_sidechain": [false], "free_energy": -9.122, "intermolecular_energy": -12.322, "internal_energy": -1.71}

> <PREPARED_BY>
siam chowdhury
Computational and Medicinal Chemistry
[Dr. Alam's Research Team] www.alamresearch.org
Arkansas State University

$$$$
5sa23_out
     RDKit          3D

 46 49  0  0  0  0  0  0  0  0999 V2000
   14.6020   14.0060   34.1580 O   0  0  0  0  0  0  0  0  0  0  0  0
   15.3130   14.3630   35.0840 C   0  0  0  0  0  0  0  0  0  0  0  0
   16.2650   13.5710   35.6220 O   0  0  0  0  0  0  0  0  0  0  0  0
   15.1820   15.6920   35.7350 C   0  0  0  0  0  0  0  0  0  0  0  0
   15.7530   15.8690   37.0010 C   0  0  0  0  0  0  0  0  0  0  0  0
   15.6350   17.0960   37.6670 C   0  0  0  0  0  0  0  0  0  0  0  0
   14.9310   18.1570   37.0760 C   0  0  0  0  0  0  0  0  0  0  0  0
   14.8140   19.4010   37.7660 N   0  0  0  0  0  0  0  0  0  0  0  0
   15.7220   20.4280   37.7970 C   0  0  0  0  0  0  0  0  0  0  0  0
   15.2050   21.4170   38.6090 C   0  0  0  0  0  0  0  0  0  0  0  0
   15.8500   22.7340   38.9190 C   0  0  0  0  0  0  0  0  0  0  0  0
   15.8060   23.6910   37.8110 N   0  0  0  0  0  0  0  0  0  0  0  0
   14.5760   24.2360   37.4260 C   0  0  0  0  0  0  0  0  0  0  0  0
   13.8640   25.0200   38.3500 C   0  0  0  0  0  0  0  0  0  0  0  0
   12.6410   25.6130   38.0160 C   0  0  0  0  0  0  0  0  0  0  0  0
   12.1270   25.4580   36.7340 C   0  0  0  0  0  0  0  0  0  0  0  0
   12.8420   24.7130   35.8040 C   0  0  0  0  0  0  0  0  0  0  0  0
   12.3570   24.5770   34.5620 F   0  0  0  0  0  0  0  0  0  0  0  0
   14.0560   24.1130   36.1340 C   0  0  0  0  0  0  0  0  0  0  0  0
   13.9630   20.8850   39.0750 C   0  0  0  0  0  0  0  0  0  0  0  0
   13.0090   21.4640   40.0360 C   0  0  0  0  0  0  0  0  0  0  0  0
   11.8790   22.1740   39.6000 C   0  0  0  0  0  0  0  0  0  0  0  0
   10.9640   22.7170   40.5040 C   0  0  0  0  0  0  0  0  0  0  0  0
   11.1940   22.5810   41.8630 C   0  0  0  0  0  0  0  0  0  0  0  0
   10.3260   23.1150   42.7330 F   0  0  0  0  0  0  0  0  0  0  0  0
   12.3180   21.9100   42.3290 C   0  0  0  0  0  0  0  0  0  0  0  0
   13.2220   21.3500   41.4190 C   0  0  0  0  0  0  0  0  0  0  0  0
   13.7200   19.6910   38.5100 N   0  0  0  0  0  0  0  0  0  0  0  0
   14.3470   17.9710   35.8120 C   0  0  0  0  0  0  0  0  0  0  0  0
   14.4680   16.7420   35.1480 C   0  0  0  0  0  0  0  0  0  0  0  0
   16.2977   15.0396   37.4758 H   0  0  0  0  0  0  0  0  0  0  0  0
   16.0959   17.2285   38.6570 H   0  0  0  0  0  0  0  0  0  0  0  0
   16.6872   20.4582   37.2703 H   0  0  0  0  0  0  0  0  0  0  0  0
   15.3324   23.1787   39.7817 H   0  0  0  0  0  0  0  0  0  0  0  0
   16.9115   22.5299   39.1231 H   0  0  0  0  0  0  0  0  0  0  0  0
   16.6320   23.9480   37.3410 H   0  0  0  0  0  0  0  0  0  0  0  0
   14.2772   25.1709   39.3582 H   0  0  0  0  0  0  0  0  0  0  0  0
   12.0888   26.1994   38.7651 H   0  0  0  0  0  0  0  0  0  0  0  0
   11.1668   25.9190   36.4591 H   0  0  0  0  0  0  0  0  0  0  0  0
   14.6077   23.5399   35.3742 H   0  0  0  0  0  0  0  0  0  0  0  0
   11.7106   22.3055   38.5210 H   0  0  0  0  0  0  0  0  0  0  0  0
   10.0708   23.2467   40.1411 H   0  0  0  0  0  0  0  0  0  0  0  0
   12.4969   21.8191   43.4105 H   0  0  0  0  0  0  0  0  0  0  0  0
   14.1083   20.8152   41.7911 H   0  0  0  0  0  0  0  0  0  0  0  0
   13.7913   18.7947   35.3402 H   0  0  0  0  0  0  0  0  0  0  0  0
   14.0000   16.6030   34.1623 H   0  0  0  0  0  0  0  0  0  0  0  0
  1  2  2  0
  2  3  1  0
  2  4  1  0
  4  5  2  0
  5  6  1  0
  6  7  2  0
  7  8  1  0
  8  9  1  0
  9 10  2  0
 10 11  1  0
 11 12  1  0
 12 13  1  0
 13 14  2  0
 14 15  1  0
 15 16  2  0
 16 17  1  0
 17 18  1  0
 17 19  2  0
 10 20  1  0
 20 21  1  0
 21 22  2  0
 22 23  1  0
 23 24  2  0
 24 25  1  0
 24 26  1  0
 26 27  2  0
 20 28  2  0
  7 29  1  0
 29 30  2  0
 30  4  1  0
 28  8  1  0
 19 13  1  0
 27 21  1  0
  5 31  1  0
  6 32  1  0
  9 33  1  0
 11 34  1  0
 11 35  1  0
 12 36  1  0
 14 37  1  0
 15 38  1  0
 16 39  1  0
 19 40  1  0
 22 41  1  0
 23 42  1  0
 26 43  1  0
 27 44  1  0
 29 45  1  0
 30 46  1  0
M  CHG  1   3  -1
M  END
>  <meeko>  (2) 
{"is_sidechain": [false], "free_energy": -8.929, "intermolecular_energy": -12.058, "internal_energy": -1.712}

> <PREPARED_BY>
siam chowdhury
Computational and Medicinal Chemistry
[Dr. Alam's Research Team] www.alamresearch.org
Arkansas State University

$$$$
5sa23_out
     RDKit          3D

 46 49  0  0  0  0  0  0  0  0999 V2000
    5.9230   14.1810   31.5290 O   0  0  0  0  0  0  0  0  0  0  0  0
    6.3610   14.3610   32.6540 C   0  0  0  0  0  0  0  0  0  0  0  0
    5.5780   14.3510   33.7540 O   0  0  0  0  0  0  0  0  0  0  0  0
    7.7940   14.6410   32.9260 C   0  0  0  0  0  0  0  0  0  0  0  0
    8.2310   14.6300   34.2560 C   0  0  0  0  0  0  0  0  0  0  0  0
    9.5690   14.9120   34.5650 C   0  0  0  0  0  0  0  0  0  0  0  0
   10.4810   15.2200   33.5440 C   0  0  0  0  0  0  0  0  0  0  0  0
   11.8390   15.5100   33.8720 N   0  0  0  0  0  0  0  0  0  0  0  0
   12.7290   14.7050   34.5370 C   0  0  0  0  0  0  0  0  0  0  0  0
   13.9140   15.4020   34.6550 C   0  0  0  0  0  0  0  0  0  0  0  0
   15.1730   14.9040   35.2980 C   0  0  0  0  0  0  0  0  0  0  0  0
   15.0680   14.7270   36.7480 N   0  0  0  0  0  0  0  0  0  0  0  0
   15.3690   15.8020   37.5920 C   0  0  0  0  0  0  0  0  0  0  0  0
   14.3140   16.5770   38.1030 C   0  0  0  0  0  0  0  0  0  0  0  0
   14.5490   17.6480   38.9730 C   0  0  0  0  0  0  0  0  0  0  0  0
   15.8480   17.9400   39.3710 C   0  0  0  0  0  0  0  0  0  0  0  0
   16.8930   17.1570   38.8980 C   0  0  0  0  0  0  0  0  0  0  0  0
   18.1450   17.4240   39.2950 F   0  0  0  0  0  0  0  0  0  0  0  0
   16.6650   16.0940   38.0250 C   0  0  0  0  0  0  0  0  0  0  0  0
   13.6460   16.6710   34.0540 C   0  0  0  0  0  0  0  0  0  0  0  0
   14.5160   17.8550   33.9590 C   0  0  0  0  0  0  0  0  0  0  0  0
   14.8540   18.6000   35.1000 C   0  0  0  0  0  0  0  0  0  0  0  0
   15.6870   19.7180   35.0210 C   0  0  0  0  0  0  0  0  0  0  0  0
   16.1630   20.1220   33.7850 C   0  0  0  0  0  0  0  0  0  0  0  0
   16.9480   21.2040   33.7040 F   0  0  0  0  0  0  0  0  0  0  0  0
   15.8230   19.4240   32.6320 C   0  0  0  0  0  0  0  0  0  0  0  0
   15.0040   18.2920   32.7180 C   0  0  0  0  0  0  0  0  0  0  0  0
   12.4050   16.6940   33.5390 N   0  0  0  0  0  0  0  0  0  0  0  0
   10.0360   15.2430   32.2120 C   0  0  0  0  0  0  0  0  0  0  0  0
    8.6970   14.9600   31.9060 C   0  0  0  0  0  0  0  0  0  0  0  0
    7.5204   14.3988   35.0632 H   0  0  0  0  0  0  0  0  0  0  0  0
    9.9053   14.8917   35.6121 H   0  0  0  0  0  0  0  0  0  0  0  0
   12.5334   13.6883   34.9087 H   0  0  0  0  0  0  0  0  0  0  0  0
   15.4315   13.9339   34.8483 H   0  0  0  0  0  0  0  0  0  0  0  0
   15.9446   15.6685   35.1244 H   0  0  0  0  0  0  0  0  0  0  0  0
   14.7890   13.8610   37.1250 H   0  0  0  0  0  0  0  0  0  0  0  0
   13.2805   16.3366   37.8128 H   0  0  0  0  0  0  0  0  0  0  0  0
   13.7090   18.2560   39.3401 H   0  0  0  0  0  0  0  0  0  0  0  0
   16.0461   18.7807   40.0521 H   0  0  0  0  0  0  0  0  0  0  0  0
   17.5097   15.4822   37.6754 H   0  0  0  0  0  0  0  0  0  0  0  0
   14.4536   18.2961   36.0784 H   0  0  0  0  0  0  0  0  0  0  0  0
   15.9621   20.2717   35.9308 H   0  0  0  0  0  0  0  0  0  0  0  0
   16.1968   19.7606   31.6538 H   0  0  0  0  0  0  0  0  0  0  0  0
   14.7404   17.7397   31.8040 H   0  0  0  0  0  0  0  0  0  0  0  0
   10.7421   15.4845   31.4039 H   0  0  0  0  0  0  0  0  0  0  0  0
    8.3556   14.9889   30.8607 H   0  0  0  0  0  0  0  0  0  0  0  0
  1  2  2  0
  2  3  1  0
  2  4  1  0
  4  5  2  0
  5  6  1  0
  6  7  2  0
  7  8  1  0
  8  9  1  0
  9 10  2  0
 10 11  1  0
 11 12  1  0
 12 13  1  0
 13 14  2  0
 14 15  1  0
 15 16  2  0
 16 17  1  0
 17 18  1  0
 17 19  2  0
 10 20  1  0
 20 21  1  0
 21 22  2  0
 22 23  1  0
 23 24  2  0
 24 25  1  0
 24 26  1  0
 26 27  2  0
 20 28  2  0
  7 29  1  0
 29 30  2  0
 30  4  1  0
 28  8  1  0
 19 13  1  0
 27 21  1  0
  5 31  1  0
  6 32  1  0
  9 33  1  0
 11 34  1  0
 11 35  1  0
 12 36  1  0
 14 37  1  0
 15 38  1  0
 16 39  1  0
 19 40  1  0
 22 41  1  0
 23 42  1  0
 26 43  1  0
 27 44  1  0
 29 45  1  0
 30 46  1  0
M  CHG  1   3  -1
M  END
>  <meeko>  (3) 
{"is_sidechain": [false], "free_energy": -8.314, "intermolecular_energy": -11.383, "internal_energy": -1.558}

> <PREPARED_BY>
siam chowdhury
Computational and Medicinal Chemistry
[Dr. Alam's Research Team] www.alamresearch.org
Arkansas State University

$$$$
5sa23_out
     RDKit          3D

 46 49  0  0  0  0  0  0  0  0999 V2000
   11.4680   26.0080   37.5420 O   0  0  0  0  0  0  0  0  0  0  0  0
   12.6140   25.6530   37.7730 C   0  0  0  0  0  0  0  0  0  0  0  0
   13.5640   26.4980   38.2260 O   0  0  0  0  0  0  0  0  0  0  0  0
   13.0870   24.2630   37.5490 C   0  0  0  0  0  0  0  0  0  0  0  0
   14.0380   23.7360   38.4320 C   0  0  0  0  0  0  0  0  0  0  0  0
   14.5330   22.4390   38.2490 C   0  0  0  0  0  0  0  0  0  0  0  0
   14.0910   21.6580   37.1690 C   0  0  0  0  0  0  0  0  0  0  0  0
   14.6070   20.3400   36.9900 N   0  0  0  0  0  0  0  0  0  0  0  0
   14.1920   19.3960   36.0850 C   0  0  0  0  0  0  0  0  0  0  0  0
   14.9520   18.2620   36.2870 C   0  0  0  0  0  0  0  0  0  0  0  0
   14.8570   16.9830   35.5120 C   0  0  0  0  0  0  0  0  0  0  0  0
   14.0280   15.9600   36.1550 N   0  0  0  0  0  0  0  0  0  0  0  0
   12.7970   15.6190   35.5840 C   0  0  0  0  0  0  0  0  0  0  0  0
   12.6860   15.5900   34.1830 C   0  0  0  0  0  0  0  0  0  0  0  0
   11.4900   15.2310   33.5520 C   0  0  0  0  0  0  0  0  0  0  0  0
   10.3900   14.8610   34.3180 C   0  0  0  0  0  0  0  0  0  0  0  0
   10.5030   14.8540   35.7030 C   0  0  0  0  0  0  0  0  0  0  0  0
    9.4500   14.4800   36.4440 F   0  0  0  0  0  0  0  0  0  0  0  0
   11.6900   15.2190   36.3370 C   0  0  0  0  0  0  0  0  0  0  0  0
   15.8030   18.5920   37.3880 C   0  0  0  0  0  0  0  0  0  0  0  0
   16.7740   17.7420   38.0970 C   0  0  0  0  0  0  0  0  0  0  0  0
   16.3530   16.7990   39.0480 C   0  0  0  0  0  0  0  0  0  0  0  0
   17.2660   15.9820   39.7190 C   0  0  0  0  0  0  0  0  0  0  0  0
   18.6200   16.1290   39.4640 C   0  0  0  0  0  0  0  0  0  0  0  0
   19.4980   15.3570   40.1180 F   0  0  0  0  0  0  0  0  0  0  0  0
   19.0710   17.0730   38.5510 C   0  0  0  0  0  0  0  0  0  0  0  0
   18.1520   17.8770   37.8670 C   0  0  0  0  0  0  0  0  0  0  0  0
   15.6160   19.8690   37.7600 N   0  0  0  0  0  0  0  0  0  0  0  0
   13.1480   22.1950   36.2780 C   0  0  0  0  0  0  0  0  0  0  0  0
   12.6530   23.4940   36.4640 C   0  0  0  0  0  0  0  0  0  0  0  0
   14.3982   24.3448   39.2744 H   0  0  0  0  0  0  0  0  0  0  0  0
   15.2714   22.0301   38.9544 H   0  0  0  0  0  0  0  0  0  0  0  0
   13.3975   19.5205   35.3345 H   0  0  0  0  0  0  0  0  0  0  0  0
   14.4269   17.2073   34.5247 H   0  0  0  0  0  0  0  0  0  0  0  0
   15.8757   16.5733   35.4453 H   0  0  0  0  0  0  0  0  0  0  0  0
   14.3330   15.5190   36.9810 H   0  0  0  0  0  0  0  0  0  0  0  0
   13.5592   15.8555   33.5689 H   0  0  0  0  0  0  0  0  0  0  0  0
   11.4201   15.2414   32.4543 H   0  0  0  0  0  0  0  0  0  0  0  0
    9.4435   14.5778   33.8343 H   0  0  0  0  0  0  0  0  0  0  0  0
   11.7553   15.1919   37.4347 H   0  0  0  0  0  0  0  0  0  0  0  0
   15.2800   16.7013   39.2697 H   0  0  0  0  0  0  0  0  0  0  0  0
   16.9142   15.2307   40.4414 H   0  0  0  0  0  0  0  0  0  0  0  0
   20.1491   17.1888   38.3656 H   0  0  0  0  0  0  0  0  0  0  0  0
   18.5131   18.6217   37.1424 H   0  0  0  0  0  0  0  0  0  0  0  0
   12.7950   21.5926   35.4280 H   0  0  0  0  0  0  0  0  0  0  0  0
   11.9217   23.9092   35.7549 H   0  0  0  0  0  0  0  0  0  0  0  0
  1  2  2  0
  2  3  1  0
  2  4  1  0
  4  5  2  0
  5  6  1  0
  6  7  2  0
  7  8  1  0
  8  9  1  0
  9 10  2  0
 10 11  1  0
 11 12  1  0
 12 13  1  0
 13 14  2  0
 14 15  1  0
 15 16  2  0
 16 17  1  0
 17 18  1  0
 17 19  2  0
 10 20  1  0
 20 21  1  0
 21 22  2  0
 22 23  1  0
 23 24  2  0
 24 25  1  0
 24 26  1  0
 26 27  2  0
 20 28  2  0
  7 29  1  0
 29 30  2  0
 30  4  1  0
 28  8  1  0
 19 13  1  0
 27 21  1  0
  5 31  1  0
  6 32  1  0
  9 33  1  0
 11 34  1  0
 11 35  1  0
 12 36  1  0
 14 37  1  0
 15 38  1  0
 16 39  1  0
 19 40  1  0
 22 41  1  0
 23 42  1  0
 26 43  1  0
 27 44  1  0
 29 45  1  0
 30 46  1  0
M  CHG  1   3  -1
M  END
>  <meeko>  (4) 
{"is_sidechain": [false], "free_energy": -7.668, "intermolecular_energy": -10.971, "internal_energy": -1.096}

> <PREPARED_BY>
siam chowdhury
Computational and Medicinal Chemistry
[Dr. Alam's Research Team] www.alamresearch.org
Arkansas State University

$$$$
5sa23_out
     RDKit          3D

 46 49  0  0  0  0  0  0  0  0999 V2000
   16.1420   13.4600   35.5230 O   0  0  0  0  0  0  0  0  0  0  0  0
   15.3150   14.2460   35.0870 C   0  0  0  0  0  0  0  0  0  0  0  0
   14.4190   13.9090   34.1350 O   0  0  0  0  0  0  0  0  0  0  0  0
   15.2310   15.6590   35.5350 C   0  0  0  0  0  0  0  0  0  0  0  0
   14.5950   16.5830   34.6970 C   0  0  0  0  0  0  0  0  0  0  0  0
   14.5120   17.9330   35.0650 C   0  0  0  0  0  0  0  0  0  0  0  0
   15.0780   18.3740   36.2710 C   0  0  0  0  0  0  0  0  0  0  0  0
   14.9910   19.7520   36.6320 N   0  0  0  0  0  0  0  0  0  0  0  0
   15.2380   20.3120   37.8600 C   0  0  0  0  0  0  0  0  0  0  0  0
   15.0030   21.6670   37.7550 C   0  0  0  0  0  0  0  0  0  0  0  0
   15.1630   22.6800   38.8480 C   0  0  0  0  0  0  0  0  0  0  0  0
   13.9210   22.9800   39.5650 N   0  0  0  0  0  0  0  0  0  0  0  0
   13.0350   23.9230   39.0320 C   0  0  0  0  0  0  0  0  0  0  0  0
   13.5460   25.1470   38.5690 C   0  0  0  0  0  0  0  0  0  0  0  0
   12.7140   26.1190   38.0010 C   0  0  0  0  0  0  0  0  0  0  0  0
   11.3550   25.8640   37.8570 C   0  0  0  0  0  0  0  0  0  0  0  0
   10.8480   24.6420   38.2800 C   0  0  0  0  0  0  0  0  0  0  0  0
    9.5420   24.3860   38.1260 F   0  0  0  0  0  0  0  0  0  0  0  0
   11.6710   23.6740   38.8540 C   0  0  0  0  0  0  0  0  0  0  0  0
   14.5680   21.8530   36.4060 C   0  0  0  0  0  0  0  0  0  0  0  0
   14.0990   23.0810   35.7430 C   0  0  0  0  0  0  0  0  0  0  0  0
   12.7550   23.2360   35.3670 C   0  0  0  0  0  0  0  0  0  0  0  0
   12.3000   24.4010   34.7470 C   0  0  0  0  0  0  0  0  0  0  0  0
   13.2020   25.4140   34.4660 C   0  0  0  0  0  0  0  0  0  0  0  0
   12.7710   26.5270   33.8570 F   0  0  0  0  0  0  0  0  0  0  0  0
   14.5450   25.2810   34.7980 C   0  0  0  0  0  0  0  0  0  0  0  0
   14.9930   24.1200   35.4370 C   0  0  0  0  0  0  0  0  0  0  0  0
   14.6210   20.6930   35.7310 N   0  0  0  0  0  0  0  0  0  0  0  0
   15.7280   17.4460   37.1010 C   0  0  0  0  0  0  0  0  0  0  0  0
   15.8080   16.0970   36.7310 C   0  0  0  0  0  0  0  0  0  0  0  0
   14.1581   16.2477   33.7448 H   0  0  0  0  0  0  0  0  0  0  0  0
   14.0009   18.6499   34.4055 H   0  0  0  0  0  0  0  0  0  0  0  0
   15.5643   19.7773   38.7642 H   0  0  0  0  0  0  0  0  0  0  0  0
   15.8968   22.2957   39.5718 H   0  0  0  0  0  0  0  0  0  0  0  0
   15.4907   23.6155   38.3712 H   0  0  0  0  0  0  0  0  0  0  0  0
   13.7130   22.5250   40.4120 H   0  0  0  0  0  0  0  0  0  0  0  0
   14.6244   25.3461   38.6548 H   0  0  0  0  0  0  0  0  0  0  0  0
   13.1337   27.0804   37.6700 H   0  0  0  0  0  0  0  0  0  0  0  0
   10.6900   26.6200   37.4139 H   0  0  0  0  0  0  0  0  0  0  0  0
   11.2450   22.7098   39.1683 H   0  0  0  0  0  0  0  0  0  0  0  0
   12.0441   22.4204   35.5656 H   0  0  0  0  0  0  0  0  0  0  0  0
   11.2377   24.5133   34.4847 H   0  0  0  0  0  0  0  0  0  0  0  0
   15.2543   26.0871   34.5588 H   0  0  0  0  0  0  0  0  0  0  0  0
   16.0558   24.0199   35.7024 H   0  0  0  0  0  0  0  0  0  0  0  0
   16.1772   17.7805   38.0478 H   0  0  0  0  0  0  0  0  0  0  0  0
   16.3268   15.3797   37.3839 H   0  0  0  0  0  0  0  0  0  0  0  0
  1  2  2  0
  2  3  1  0
  2  4  1  0
  4  5  2  0
  5  6  1  0
  6  7  2  0
  7  8  1  0
  8  9  1  0
  9 10  2  0
 10 11  1  0
 11 12  1  0
 12 13  1  0
 13 14  2  0
 14 15  1  0
 15 16  2  0
 16 17  1  0
 17 18  1  0
 17 19  2  0
 10 20  1  0
 20 21  1  0
 21 22  2  0
 22 23  1  0
 23 24  2  0
 24 25  1  0
 24 26  1  0
 26 27  2  0
 20 28  2  0
  7 29  1  0
 29 30  2  0
 30  4  1  0
 28  8  1  0
 19 13  1  0
 27 21  1  0
  5 31  1  0
  6 32  1  0
  9 33  1  0
 11 34  1  0
 11 35  1  0
 12 36  1  0
 14 37  1  0
 15 38  1  0
 16 39  1  0
 19 40  1  0
 22 41  1  0
 23 42  1  0
 26 43  1  0
 27 44  1  0
 29 45  1  0
 30 46  1  0
M  CHG  1   3  -1
M  END
>  <meeko>  (5) 
{"is_sidechain": [false], "free_energy": -7.591, "intermolecular_energy": -9.637, "internal_energy": -2.327}

> <PREPARED_BY>
siam chowdhury
Computational and Medicinal Chemistry
[Dr. Alam's Research Team] www.alamresearch.org
Arkansas State University

$$$$
5sa23_out
     RDKit          3D

 46 49  0  0  0  0  0  0  0  0999 V2000
   12.5480   22.4270   42.7330 O   0  0  0  0  0  0  0  0  0  0  0  0
   11.9640   21.5130   42.1720 C   0  0  0  0  0  0  0  0  0  0  0  0
   10.7930   21.0110   42.6190 O   0  0  0  0  0  0  0  0  0  0  0  0
   12.4970   20.8390   40.9610 C   0  0  0  0  0  0  0  0  0  0  0  0
   11.9170   21.1440   39.7240 C   0  0  0  0  0  0  0  0  0  0  0  0
   12.3690   20.5170   38.5550 C   0  0  0  0  0  0  0  0  0  0  0  0
   13.3990   19.5660   38.6160 C   0  0  0  0  0  0  0  0  0  0  0  0
   13.8470   18.9300   37.4190 N   0  0  0  0  0  0  0  0  0  0  0  0
   13.8710   17.5850   37.1460 C   0  0  0  0  0  0  0  0  0  0  0  0
   14.4080   17.4260   35.8850 C   0  0  0  0  0  0  0  0  0  0  0  0
   14.6090   16.1260   35.1660 C   0  0  0  0  0  0  0  0  0  0  0  0
   13.7820   15.0310   35.6790 N   0  0  0  0  0  0  0  0  0  0  0  0
   12.4460   14.9350   35.2730 C   0  0  0  0  0  0  0  0  0  0  0  0
   11.4400   14.9090   36.2530 C   0  0  0  0  0  0  0  0  0  0  0  0
   10.0850   14.8410   35.9090 C   0  0  0  0  0  0  0  0  0  0  0  0
    9.7140   14.8320   34.5700 C   0  0  0  0  0  0  0  0  0  0  0  0
   10.7010   14.8930   33.5940 C   0  0  0  0  0  0  0  0  0  0  0  0
   10.3450   14.9030   32.3020 F   0  0  0  0  0  0  0  0  0  0  0  0
   12.0520   14.9520   33.9320 C   0  0  0  0  0  0  0  0  0  0  0  0
   14.7280   18.7530   35.4610 C   0  0  0  0  0  0  0  0  0  0  0  0
   15.4000   19.1960   34.2280 C   0  0  0  0  0  0  0  0  0  0  0  0
   15.0390   18.6730   32.9760 C   0  0  0  0  0  0  0  0  0  0  0  0
   15.6640   19.0950   31.8010 C   0  0  0  0  0  0  0  0  0  0  0  0
   16.6870   20.0250   31.8750 C   0  0  0  0  0  0  0  0  0  0  0  0
   17.2990   20.4200   30.7500 F   0  0  0  0  0  0  0  0  0  0  0  0
   17.0890   20.5410   33.1010 C   0  0  0  0  0  0  0  0  0  0  0  0
   16.4470   20.1310   34.2740 C   0  0  0  0  0  0  0  0  0  0  0  0
   14.3310   19.6490   36.3790 N   0  0  0  0  0  0  0  0  0  0  0  0
   13.9690   19.2520   39.8610 C   0  0  0  0  0  0  0  0  0  0  0  0
   13.5150   19.8830   41.0280 C   0  0  0  0  0  0  0  0  0  0  0  0
   11.1016   21.8802   39.6692 H   0  0  0  0  0  0  0  0  0  0  0  0
   11.9147   20.7713   37.5860 H   0  0  0  0  0  0  0  0  0  0  0  0
   13.5251   16.7803   37.8115 H   0  0  0  0  0  0  0  0  0  0  0  0
   14.3653   16.2761   34.1039 H   0  0  0  0  0  0  0  0  0  0  0  0
   15.6582   15.8339   35.3208 H   0  0  0  0  0  0  0  0  0  0  0  0
   14.1600   14.3710   36.3030 H   0  0  0  0  0  0  0  0  0  0  0  0
   11.7237   14.9429   37.3153 H   0  0  0  0  0  0  0  0  0  0  0  0
    9.3171   14.7949   36.6953 H   0  0  0  0  0  0  0  0  0  0  0  0
    8.6526   14.7773   34.2863 H   0  0  0  0  0  0  0  0  0  0  0  0
   12.8121   15.0123   33.1392 H   0  0  0  0  0  0  0  0  0  0  0  0
   14.2455   17.9133   32.9196 H   0  0  0  0  0  0  0  0  0  0  0  0
   15.3472   18.6931   30.8273 H   0  0  0  0  0  0  0  0  0  0  0  0
   17.9107   21.2707   33.1489 H   0  0  0  0  0  0  0  0  0  0  0  0
   16.7653   20.5450   35.2422 H   0  0  0  0  0  0  0  0  0  0  0  0
   14.7760   18.5069   39.9207 H   0  0  0  0  0  0  0  0  0  0  0  0
   13.9614   19.6249   41.9997 H   0  0  0  0  0  0  0  0  0  0  0  0
  1  2  2  0
  2  3  1  0
  2  4  1  0
  4  5  2  0
  5  6  1  0
  6  7  2  0
  7  8  1  0
  8  9  1  0
  9 10  2  0
 10 11  1  0
 11 12  1  0
 12 13  1  0
 13 14  2  0
 14 15  1  0
 15 16  2  0
 16 17  1  0
 17 18  1  0
 17 19  2  0
 10 20  1  0
 20 21  1  0
 21 22  2  0
 22 23  1  0
 23 24  2  0
 24 25  1  0
 24 26  1  0
 26 27  2  0
 20 28  2  0
  7 29  1  0
 29 30  2  0
 30  4  1  0
 28  8  1  0
 19 13  1  0
 27 21  1  0
  5 31  1  0
  6 32  1  0
  9 33  1  0
 11 34  1  0
 11 35  1  0
 12 36  1  0
 14 37  1  0
 15 38  1  0
 16 39  1  0
 19 40  1  0
 22 41  1  0
 23 42  1  0
 26 43  1  0
 27 44  1  0
 29 45  1  0
 30 46  1  0
M  CHG  1   3  -1
M  END
>  <meeko>  (6) 
{"is_sidechain": [false], "free_energy": -7.507, "intermolecular_energy": -10.898, "internal_energy": -0.952}

> <PREPARED_BY>
siam chowdhury
Computational and Medicinal Chemistry
[Dr. Alam's Research Team] www.alamresearch.org
Arkansas State University

$$$$
5sa23_out
     RDKit          3D

 46 49  0  0  0  0  0  0  0  0999 V2000
    9.8730   20.6680   42.3880 O   0  0  0  0  0  0  0  0  0  0  0  0
   10.3950   21.6990   41.9910 C   0  0  0  0  0  0  0  0  0  0  0  0
   10.4460   22.8250   42.7330 O   0  0  0  0  0  0  0  0  0  0  0  0
   10.9970   21.8280   40.6400 C   0  0  0  0  0  0  0  0  0  0  0  0
   10.8530   23.0460   39.9640 C   0  0  0  0  0  0  0  0  0  0  0  0
   11.3830   23.2090   38.6770 C   0  0  0  0  0  0  0  0  0  0  0  0
   12.0520   22.1480   38.0470 C   0  0  0  0  0  0  0  0  0  0  0  0
   12.5830   22.3250   36.7340 N   0  0  0  0  0  0  0  0  0  0  0  0
   12.3660   23.3760   35.8800 C   0  0  0  0  0  0  0  0  0  0  0  0
   13.0540   23.1140   34.7130 C   0  0  0  0  0  0  0  0  0  0  0  0
   13.1180   23.9990   33.5050 C   0  0  0  0  0  0  0  0  0  0  0  0
   14.4150   24.6530   33.3170 N   0  0  0  0  0  0  0  0  0  0  0  0
   15.3690   24.0530   32.4880 C   0  0  0  0  0  0  0  0  0  0  0  0
   16.7070   24.0090   32.9160 C   0  0  0  0  0  0  0  0  0  0  0  0
   17.7020   23.4000   32.1430 C   0  0  0  0  0  0  0  0  0  0  0  0
   17.3650   22.7930   30.9390 C   0  0  0  0  0  0  0  0  0  0  0  0
   16.0390   22.8020   30.5260 C   0  0  0  0  0  0  0  0  0  0  0  0
   15.7080   22.2020   29.3740 F   0  0  0  0  0  0  0  0  0  0  0  0
   15.0450   23.4150   31.2870 C   0  0  0  0  0  0  0  0  0  0  0  0
   13.6480   21.8320   34.9270 C   0  0  0  0  0  0  0  0  0  0  0  0
   14.4330   21.0060   33.9950 C   0  0  0  0  0  0  0  0  0  0  0  0
   15.8060   20.7890   34.1970 C   0  0  0  0  0  0  0  0  0  0  0  0
   16.5570   20.0000   33.3230 C   0  0  0  0  0  0  0  0  0  0  0  0
   15.9400   19.4440   32.2140 C   0  0  0  0  0  0  0  0  0  0  0  0
   16.6610   18.6990   31.3660 F   0  0  0  0  0  0  0  0  0  0  0  0
   14.5900   19.6620   31.9690 C   0  0  0  0  0  0  0  0  0  0  0  0
   13.8370   20.4390   32.8570 C   0  0  0  0  0  0  0  0  0  0  0  0
   13.3970   21.3990   36.1740 N   0  0  0  0  0  0  0  0  0  0  0  0
   12.1820   20.9240   38.7230 C   0  0  0  0  0  0  0  0  0  0  0  0
   11.6520   20.7640   40.0110 C   0  0  0  0  0  0  0  0  0  0  0  0
   10.3209   23.8794   40.4460 H   0  0  0  0  0  0  0  0  0  0  0  0
   11.2742   24.1728   38.1581 H   0  0  0  0  0  0  0  0  0  0  0  0
   11.7544   24.2664   36.0877 H   0  0  0  0  0  0  0  0  0  0  0  0
   12.9064   23.3871   32.6157 H   0  0  0  0  0  0  0  0  0  0  0  0
   12.3762   24.7974   33.6542 H   0  0  0  0  0  0  0  0  0  0  0  0
   14.6140   25.5040   33.7700 H   0  0  0  0  0  0  0  0  0  0  0  0
   16.9782   24.4635   33.8803 H   0  0  0  0  0  0  0  0  0  0  0  0
   18.7468   23.4017   32.4870 H   0  0  0  0  0  0  0  0  0  0  0  0
   18.1380   22.3120   30.3216 H   0  0  0  0  0  0  0  0  0  0  0  0
   14.0010   23.3967   30.9410 H   0  0  0  0  0  0  0  0  0  0  0  0
   16.3012   21.2512   35.0637 H   0  0  0  0  0  0  0  0  0  0  0  0
   17.6258   19.8221   33.5128 H   0  0  0  0  0  0  0  0  0  0  0  0
   14.1138   19.2249   31.0790 H   0  0  0  0  0  0  0  0  0  0  0  0
   12.7677   20.6071   32.6614 H   0  0  0  0  0  0  0  0  0  0  0  0
   12.7032   20.0851   38.2386 H   0  0  0  0  0  0  0  0  0  0  0  0
   11.7516   19.7986   40.5287 H   0  0  0  0  0  0  0  0  0  0  0  0
  1  2  2  0
  2  3  1  0
  2  4  1  0
  4  5  2  0
  5  6  1  0
  6  7  2  0
  7  8  1  0
  8  9  1  0
  9 10  2  0
 10 11  1  0
 11 12  1  0
 12 13  1  0
 13 14  2  0
 14 15  1  0
 15 16  2  0
 16 17  1  0
 17 18  1  0
 17 19  2  0
 10 20  1  0
 20 21  1  0
 21 22  2  0
 22 23  1  0
 23 24  2  0
 24 25  1  0
 24 26  1  0
 26 27  2  0
 20 28  2  0
  7 29  1  0
 29 30  2  0
 30  4  1  0
 28  8  1  0
 19 13  1  0
 27 21  1  0
  5 31  1  0
  6 32  1  0
  9 33  1  0
 11 34  1  0
 11 35  1  0
 12 36  1  0
 14 37  1  0
 15 38  1  0
 16 39  1  0
 19 40  1  0
 22 41  1  0
 23 42  1  0
 26 43  1  0
 27 44  1  0
 29 45  1  0
 30 46  1  0
M  CHG  1   3  -1
M  END
>  <meeko>  (7) 
{"is_sidechain": [false], "free_energy": -7.4, "intermolecular_energy": -9.345, "internal_energy": -2.361}

> <PREPARED_BY>
siam chowdhury
Computational and Medicinal Chemistry
[Dr. Alam's Research Team] www.alamresearch.org
Arkansas State University

$$$$
5sa23_out
     RDKit          3D

 46 49  0  0  0  0  0  0  0  0999 V2000
   14.3750   13.8130   34.0310 O   0  0  0  0  0  0  0  0  0  0  0  0
   15.1210   14.2720   34.8820 C   0  0  0  0  0  0  0  0  0  0  0  0
   16.1130   13.5530   35.4500 O   0  0  0  0  0  0  0  0  0  0  0  0
   14.9940   15.6570   35.4030 C   0  0  0  0  0  0  0  0  0  0  0  0
   14.5950   16.6650   34.5160 C   0  0  0  0  0  0  0  0  0  0  0  0
   14.4840   17.9910   34.9540 C   0  0  0  0  0  0  0  0  0  0  0  0
   14.7840   18.3250   36.2840 C   0  0  0  0  0  0  0  0  0  0  0  0
   14.6710   19.6810   36.7160 N   0  0  0  0  0  0  0  0  0  0  0  0
   14.9390   20.1850   37.9640 C   0  0  0  0  0  0  0  0  0  0  0  0
   14.6660   21.5370   37.9340 C   0  0  0  0  0  0  0  0  0  0  0  0
   14.8300   22.4980   39.0720 C   0  0  0  0  0  0  0  0  0  0  0  0
   14.3220   21.9950   40.3510 N   0  0  0  0  0  0  0  0  0  0  0  0
   12.9680   22.1620   40.6620 C   0  0  0  0  0  0  0  0  0  0  0  0
   12.5050   21.7360   41.9180 C   0  0  0  0  0  0  0  0  0  0  0  0
   11.1680   21.8990   42.2970 C   0  0  0  0  0  0  0  0  0  0  0  0
   10.2770   22.5250   41.4330 C   0  0  0  0  0  0  0  0  0  0  0  0
   10.7360   22.9810   40.2030 C   0  0  0  0  0  0  0  0  0  0  0  0
    9.8840   23.6010   39.3760 F   0  0  0  0  0  0  0  0  0  0  0  0
   12.0650   22.8130   39.8170 C   0  0  0  0  0  0  0  0  0  0  0  0
   14.1880   21.7770   36.6080 C   0  0  0  0  0  0  0  0  0  0  0  0
   13.6690   23.0240   36.0210 C   0  0  0  0  0  0  0  0  0  0  0  0
   12.3180   23.3840   36.1590 C   0  0  0  0  0  0  0  0  0  0  0  0
   11.8200   24.5700   35.6150 C   0  0  0  0  0  0  0  0  0  0  0  0
   12.6690   25.3920   34.8930 C   0  0  0  0  0  0  0  0  0  0  0  0
   12.1900   26.5220   34.3560 F   0  0  0  0  0  0  0  0  0  0  0  0
   14.0040   25.0510   34.7130 C   0  0  0  0  0  0  0  0  0  0  0  0
   14.5040   23.8720   35.2760 C   0  0  0  0  0  0  0  0  0  0  0  0
   14.2520   20.6540   35.8740 N   0  0  0  0  0  0  0  0  0  0  0  0
   15.1970   17.3140   37.1660 C   0  0  0  0  0  0  0  0  0  0  0  0
   15.3060   15.9880   36.7260 C   0  0  0  0  0  0  0  0  0  0  0  0
   14.3675   16.4139   33.4695 H   0  0  0  0  0  0  0  0  0  0  0  0
   14.1603   18.7740   34.2525 H   0  0  0  0  0  0  0  0  0  0  0  0
   15.3049   19.6148   38.8306 H   0  0  0  0  0  0  0  0  0  0  0  0
   15.9014   22.7187   39.1874 H   0  0  0  0  0  0  0  0  0  0  0  0
   14.2394   23.3920   38.8229 H   0  0  0  0  0  0  0  0  0  0  0  0
   14.9270   21.5460   40.9850 H   0  0  0  0  0  0  0  0  0  0  0  0
   13.2091   21.2639   42.6190 H   0  0  0  0  0  0  0  0  0  0  0  0
   10.8232   21.5330   43.2753 H   0  0  0  0  0  0  0  0  0  0  0  0
    9.2231   22.6576   41.7189 H   0  0  0  0  0  0  0  0  0  0  0  0
   12.4045   23.1946   38.8428 H   0  0  0  0  0  0  0  0  0  0  0  0
   11.6372   22.7168   36.7078 H   0  0  0  0  0  0  0  0  0  0  0  0
   10.7654   24.8480   35.7584 H   0  0  0  0  0  0  0  0  0  0  0  0
   14.6664   25.7069   34.1289 H   0  0  0  0  0  0  0  0  0  0  0  0
   15.5620   23.6066   35.1336 H   0  0  0  0  0  0  0  0  0  0  0  0
   15.4368   17.5644   38.2099 H   0  0  0  0  0  0  0  0  0  0  0  0
   15.6380   15.2047   37.4233 H   0  0  0  0  0  0  0  0  0  0  0  0
  1  2  2  0
  2  3  1  0
  2  4  1  0
  4  5  2  0
  5  6  1  0
  6  7  2  0
  7  8  1  0
  8  9  1  0
  9 10  2  0
 10 11  1  0
 11 12  1  0
 12 13  1  0
 13 14  2  0
 14 15  1  0
 15 16  2  0
 16 17  1  0
 17 18  1  0
 17 19  2  0
 10 20  1  0
 20 21  1  0
 21 22  2  0
 22 23  1  0
 23 24  2  0
 24 25  1  0
 24 26  1  0
 26 27  2  0
 20 28  2  0
  7 29  1  0
 29 30  2  0
 30  4  1  0
 28  8  1  0
 19 13  1  0
 27 21  1  0
  5 31  1  0
  6 32  1  0
  9 33  1  0
 11 34  1  0
 11 35  1  0
 12 36  1  0
 14 37  1  0
 15 38  1  0
 16 39  1  0
 19 40  1  0
 22 41  1  0
 23 42  1  0
 26 43  1  0
 27 44  1  0
 29 45  1  0
 30 46  1  0
M  CHG  1   3  -1
M  END
>  <meeko>  (8) 
{"is_sidechain": [false], "free_energy": -7.373, "intermolecular_energy": -10.406, "internal_energy": -1.263}

> <PREPARED_BY>
siam chowdhury
Computational and Medicinal Chemistry
[Dr. Alam's Research Team] www.alamresearch.org
Arkansas State University

$$$$
5sa23_out
     RDKit          3D

 46 49  0  0  0  0  0  0  0  0999 V2000
    9.6630   14.3320   31.2800 O   0  0  0  0  0  0  0  0  0  0  0  0
    9.5870   14.7400   32.4290 C   0  0  0  0  0  0  0  0  0  0  0  0
    8.4490   14.6780   33.1520 O   0  0  0  0  0  0  0  0  0  0  0  0
   10.7280   15.3750   33.1360 C   0  0  0  0  0  0  0  0  0  0  0  0
   11.1270   14.8390   34.3660 C   0  0  0  0  0  0  0  0  0  0  0  0
   12.1820   15.4180   35.0830 C   0  0  0  0  0  0  0  0  0  0  0  0
   12.8430   16.5500   34.5800 C   0  0  0  0  0  0  0  0  0  0  0  0
   13.9130   17.1340   35.3210 N   0  0  0  0  0  0  0  0  0  0  0  0
   14.3980   18.4140   35.2230 C   0  0  0  0  0  0  0  0  0  0  0  0
   15.4510   18.5300   36.1080 C   0  0  0  0  0  0  0  0  0  0  0  0
   16.2700   19.7600   36.3510 C   0  0  0  0  0  0  0  0  0  0  0  0
   16.0990   20.3320   37.6890 N   0  0  0  0  0  0  0  0  0  0  0  0
   14.8070   20.5850   38.1640 C   0  0  0  0  0  0  0  0  0  0  0  0
   14.4120   20.0180   39.3870 C   0  0  0  0  0  0  0  0  0  0  0  0
   13.1430   20.2550   39.9280 C   0  0  0  0  0  0  0  0  0  0  0  0
   12.2580   21.0960   39.2630 C   0  0  0  0  0  0  0  0  0  0  0  0
   12.6530   21.6880   38.0710 C   0  0  0  0  0  0  0  0  0  0  0  0
   11.8080   22.5130   37.4370 F   0  0  0  0  0  0  0  0  0  0  0  0
   13.9130   21.4480   37.5240 C   0  0  0  0  0  0  0  0  0  0  0  0
   15.5710   17.2310   36.6940 C   0  0  0  0  0  0  0  0  0  0  0  0
   16.5740   16.7360   37.6510 C   0  0  0  0  0  0  0  0  0  0  0  0
   17.7930   16.1940   37.2110 C   0  0  0  0  0  0  0  0  0  0  0  0
   18.7530   15.7310   38.1120 C   0  0  0  0  0  0  0  0  0  0  0  0
   18.4850   15.7750   39.4700 C   0  0  0  0  0  0  0  0  0  0  0  0
   19.3980   15.3170   40.3360 F   0  0  0  0  0  0  0  0  0  0  0  0
   17.2770   16.2780   39.9380 C   0  0  0  0  0  0  0  0  0  0  0  0
   16.3240   16.7590   39.0330 C   0  0  0  0  0  0  0  0  0  0  0  0
   14.5980   16.4210   36.2460 N   0  0  0  0  0  0  0  0  0  0  0  0
   12.4300   17.0930   33.3520 C   0  0  0  0  0  0  0  0  0  0  0  0
   11.3740   16.5110   32.6370 C   0  0  0  0  0  0  0  0  0  0  0  0
   10.6089   13.9577   34.7721 H   0  0  0  0  0  0  0  0  0  0  0  0
   12.4940   14.9839   36.0444 H   0  0  0  0  0  0  0  0  0  0  0  0
   14.0168   19.2043   34.5595 H   0  0  0  0  0  0  0  0  0  0  0  0
   17.3309   19.5017   36.2177 H   0  0  0  0  0  0  0  0  0  0  0  0
   15.9269   20.5193   35.6328 H   0  0  0  0  0  0  0  0  0  0  0  0
   16.8830   20.5360   38.2470 H   0  0  0  0  0  0  0  0  0  0  0  0
   15.1164   19.3727   39.9323 H   0  0  0  0  0  0  0  0  0  0  0  0
   12.8475   19.7783   40.8743 H   0  0  0  0  0  0  0  0  0  0  0  0
   11.2572   21.2900   39.6762 H   0  0  0  0  0  0  0  0  0  0  0  0
   14.2047   21.9401   36.5845 H   0  0  0  0  0  0  0  0  0  0  0  0
   17.9955   16.1331   36.1315 H   0  0  0  0  0  0  0  0  0  0  0  0
   19.7124   15.3353   37.7474 H   0  0  0  0  0  0  0  0  0  0  0  0
   17.0702   16.2980   41.0182 H   0  0  0  0  0  0  0  0  0  0  0  0
   15.3701   17.1589   39.4075 H   0  0  0  0  0  0  0  0  0  0  0  0
   12.9387   17.9810   32.9487 H   0  0  0  0  0  0  0  0  0  0  0  0
   11.0523   16.9490   31.6806 H   0  0  0  0  0  0  0  0  0  0  0  0
  1  2  2  0
  2  3  1  0
  2  4  1  0
  4  5  2  0
  5  6  1  0
  6  7  2  0
  7  8  1  0
  8  9  1  0
  9 10  2  0
 10 11  1  0
 11 12  1  0
 12 13  1  0
 13 14  2  0
 14 15  1  0
 15 16  2  0
 16 17  1  0
 17 18  1  0
 17 19  2  0
 10 20  1  0
 20 21  1  0
 21 22  2  0
 22 23  1  0
 23 24  2  0
 24 25  1  0
 24 26  1  0
 26 27  2  0
 20 28  2  0
  7 29  1  0
 29 30  2  0
 30  4  1  0
 28  8  1  0
 19 13  1  0
 27 21  1  0
  5 31  1  0
  6 32  1  0
  9 33  1  0
 11 34  1  0
 11 35  1  0
 12 36  1  0
 14 37  1  0
 15 38  1  0
 16 39  1  0
 19 40  1  0
 22 41  1  0
 23 42  1  0
 26 43  1  0
 27 44  1  0
 29 45  1  0
 30 46  1  0
M  CHG  1   3  -1
M  END
>  <meeko>  (9) 
{"is_sidechain": [false], "free_energy": -7.359, "intermolecular_energy": -10.185, "internal_energy": -1.465}

> <PREPARED_BY>
siam chowdhury
Computational and Medicinal Chemistry
[Dr. Alam's Research Team] www.alamresearch.org
Arkansas State University

$$$$
5sa23_out
     RDKit          3D

 46 49  0  0  0  0  0  0  0  0999 V2000
   10.5160   22.9110   42.6740 O   0  0  0  0  0  0  0  0  0  0  0  0
   10.4520   21.8880   42.0100 C   0  0  0  0  0  0  0  0  0  0  0  0
    9.6990   20.8280   42.3730 O   0  0  0  0  0  0  0  0  0  0  0  0
   11.2190   21.6930   40.7530 C   0  0  0  0  0  0  0  0  0  0  0  0
   11.1900   22.7130   39.7950 C   0  0  0  0  0  0  0  0  0  0  0  0
   11.8780   22.5670   38.5830 C   0  0  0  0  0  0  0  0  0  0  0  0
   12.5920   21.3890   38.3130 C   0  0  0  0  0  0  0  0  0  0  0  0
   13.2840   21.2500   37.0720 N   0  0  0  0  0  0  0  0  0  0  0  0
   14.3010   20.3770   36.7760 C   0  0  0  0  0  0  0  0  0  0  0  0
   14.6850   20.6120   35.4720 C   0  0  0  0  0  0  0  0  0  0  0  0
   15.7520   19.8780   34.7180 C   0  0  0  0  0  0  0  0  0  0  0  0
   15.2620   19.1780   33.5270 N   0  0  0  0  0  0  0  0  0  0  0  0
   14.3150   18.1590   33.6750 C   0  0  0  0  0  0  0  0  0  0  0  0
   13.1600   18.1860   32.8750 C   0  0  0  0  0  0  0  0  0  0  0  0
   12.1890   17.1820   32.9580 C   0  0  0  0  0  0  0  0  0  0  0  0
   12.3780   16.1110   33.8240 C   0  0  0  0  0  0  0  0  0  0  0  0
   13.5330   16.0580   34.5930 C   0  0  0  0  0  0  0  0  0  0  0  0
   13.7260   15.0180   35.4150 F   0  0  0  0  0  0  0  0  0  0  0  0
   14.4990   17.0610   34.5200 C   0  0  0  0  0  0  0  0  0  0  0  0
   13.8580   21.6970   35.0440 C   0  0  0  0  0  0  0  0  0  0  0  0
   13.8760   22.4290   33.7670 C   0  0  0  0  0  0  0  0  0  0  0  0
   14.5740   23.6400   33.6330 C   0  0  0  0  0  0  0  0  0  0  0  0
   14.6040   24.3360   32.4230 C   0  0  0  0  0  0  0  0  0  0  0  0
   13.9020   23.8370   31.3380 C   0  0  0  0  0  0  0  0  0  0  0  0
   13.9160   24.5110   30.1810 F   0  0  0  0  0  0  0  0  0  0  0  0
   13.1760   22.6570   31.4450 C   0  0  0  0  0  0  0  0  0  0  0  0
   13.1640   21.9530   32.6540 C   0  0  0  0  0  0  0  0  0  0  0  0
   12.9830   22.0300   36.0070 N   0  0  0  0  0  0  0  0  0  0  0  0
   12.6070   20.3630   39.2710 C   0  0  0  0  0  0  0  0  0  0  0  0
   11.9180   20.5130   40.4830 C   0  0  0  0  0  0  0  0  0  0  0  0
   10.6238   23.6347   39.9947 H   0  0  0  0  0  0  0  0  0  0  0  0
   11.8585   23.3784   37.8405 H   0  0  0  0  0  0  0  0  0  0  0  0
   14.7316   19.6264   37.4551 H   0  0  0  0  0  0  0  0  0  0  0  0
   16.5159   20.6043   34.4033 H   0  0  0  0  0  0  0  0  0  0  0  0
   16.1532   19.1112   35.3970 H   0  0  0  0  0  0  0  0  0  0  0  0
   15.5970   19.4210   32.6340 H   0  0  0  0  0  0  0  0  0  0  0  0
   13.0159   19.0156   32.1672 H   0  0  0  0  0  0  0  0  0  0  0  0
   11.2803   17.2398   32.3409 H   0  0  0  0  0  0  0  0  0  0  0  0
   11.6220   15.3155   33.8991 H   0  0  0  0  0  0  0  0  0  0  0  0
   15.4109   16.9877   35.1308 H   0  0  0  0  0  0  0  0  0  0  0  0
   15.1098   24.0500   34.5018 H   0  0  0  0  0  0  0  0  0  0  0  0
   15.1784   25.2697   32.3323 H   0  0  0  0  0  0  0  0  0  0  0  0
   12.6117   22.2770   30.5806 H   0  0  0  0  0  0  0  0  0  0  0  0
   12.5912   21.0173   32.7336 H   0  0  0  0  0  0  0  0  0  0  0  0
   13.1628   19.4354   39.0696 H   0  0  0  0  0  0  0  0  0  0  0  0
   11.9276   19.6997   41.2235 H   0  0  0  0  0  0  0  0  0  0  0  0
  1  2  2  0
  2  3  1  0
  2  4  1  0
  4  5  2  0
  5  6  1  0
  6  7  2  0
  7  8  1  0
  8  9  1  0
  9 10  2  0
 10 11  1  0
 11 12  1  0
 12 13  1  0
 13 14  2  0
 14 15  1  0
 15 16  2  0
 16 17  1  0
 17 18  1  0
 17 19  2  0
 10 20  1  0
 20 21  1  0
 21 22  2  0
 22 23  1  0
 23 24  2  0
 24 25  1  0
 24 26  1  0
 26 27  2  0
 20 28  2  0
  7 29  1  0
 29 30  2  0
 30  4  1  0
 28  8  1  0
 19 13  1  0
 27 21  1  0
  5 31  1  0
  6 32  1  0
  9 33  1  0
 11 34  1  0
 11 35  1  0
 12 36  1  0
 14 37  1  0
 15 38  1  0
 16 39  1  0
 19 40  1  0
 22 41  1  0
 23 42  1  0
 26 43  1  0
 27 44  1  0
 29 45  1  0
 30 46  1  0
M  CHG  1   3  -1
M  END
>  <meeko>  (10) 
{"is_sidechain": [false], "free_energy": -7.338, "intermolecular_energy": -10.187, "internal_energy": -1.435}

> <PREPARED_BY>
siam chowdhury
Computational and Medicinal Chemistry
[Dr. Alam's Research Team] www.alamresearch.org
Arkansas State University

$$$$
5sa23_out
     RDKit          3D

 46 49  0  0  0  0  0  0  0  0999 V2000
   14.7080   13.8660   33.9290 O   0  0  0  0  0  0  0  0  0  0  0  0
   15.3140   14.2320   34.9250 C   0  0  0  0  0  0  0  0  0  0  0  0
   16.2400   13.4650   35.5400 O   0  0  0  0  0  0  0  0  0  0  0  0
   15.0720   15.5430   35.5790 C   0  0  0  0  0  0  0  0  0  0  0  0
   14.6040   16.6010   34.7890 C   0  0  0  0  0  0  0  0  0  0  0  0
   14.3830   17.8630   35.3550 C   0  0  0  0  0  0  0  0  0  0  0  0
   14.6420   18.0840   36.7170 C   0  0  0  0  0  0  0  0  0  0  0  0
   14.4180   19.3760   37.2810 N   0  0  0  0  0  0  0  0  0  0  0  0
   15.0890   20.5390   36.9980 C   0  0  0  0  0  0  0  0  0  0  0  0
   14.5570   21.5310   37.7950 C   0  0  0  0  0  0  0  0  0  0  0  0
   14.9730   22.9710   37.8110 C   0  0  0  0  0  0  0  0  0  0  0  0
   14.1770   23.8270   36.9270 N   0  0  0  0  0  0  0  0  0  0  0  0
   14.1550   23.5590   35.5540 C   0  0  0  0  0  0  0  0  0  0  0  0
   15.3400   23.7120   34.8150 C   0  0  0  0  0  0  0  0  0  0  0  0
   15.3880   23.4340   33.4450 C   0  0  0  0  0  0  0  0  0  0  0  0
   14.2520   22.9630   32.7970 C   0  0  0  0  0  0  0  0  0  0  0  0
   13.0860   22.7750   33.5280 C   0  0  0  0  0  0  0  0  0  0  0  0
   11.9950   22.3030   32.9100 F   0  0  0  0  0  0  0  0  0  0  0  0
   13.0310   23.0590   34.8920 C   0  0  0  0  0  0  0  0  0  0  0  0
   13.5670   20.8660   38.5830 C   0  0  0  0  0  0  0  0  0  0  0  0
   12.7300   21.4050   39.6680 C   0  0  0  0  0  0  0  0  0  0  0  0
   12.9990   21.1000   41.0120 C   0  0  0  0  0  0  0  0  0  0  0  0
   12.2160   21.6140   42.0480 C   0  0  0  0  0  0  0  0  0  0  0  0
   11.1290   22.4160   41.7410 C   0  0  0  0  0  0  0  0  0  0  0  0
   10.3670   22.8980   42.7320 F   0  0  0  0  0  0  0  0  0  0  0  0
   10.8180   22.7130   40.4200 C   0  0  0  0  0  0  0  0  0  0  0  0
   11.6160   22.2120   39.3860 C   0  0  0  0  0  0  0  0  0  0  0  0
   13.4610   19.5780   38.2170 N   0  0  0  0  0  0  0  0  0  0  0  0
   15.1250   17.0240   37.5020 C   0  0  0  0  0  0  0  0  0  0  0  0
   15.3440   15.7620   36.9330 C   0  0  0  0  0  0  0  0  0  0  0  0
   14.4090   16.4398   33.7185 H   0  0  0  0  0  0  0  0  0  0  0  0
   14.0047   18.6849   34.7294 H   0  0  0  0  0  0  0  0  0  0  0  0
   15.9032   20.6584   36.2681 H   0  0  0  0  0  0  0  0  0  0  0  0
   14.8753   23.3487   38.8395 H   0  0  0  0  0  0  0  0  0  0  0  0
   16.0096   23.0089   37.4450 H   0  0  0  0  0  0  0  0  0  0  0  0
   13.6650   24.5830   37.2950 H   0  0  0  0  0  0  0  0  0  0  0  0
   16.2508   24.0583   35.3254 H   0  0  0  0  0  0  0  0  0  0  0  0
   16.3209   23.5875   32.8827 H   0  0  0  0  0  0  0  0  0  0  0  0
   14.2761   22.7421   31.7197 H   0  0  0  0  0  0  0  0  0  0  0  0
   12.0982   22.8885   35.4494 H   0  0  0  0  0  0  0  0  0  0  0  0
   13.8458   20.4411   41.2545 H   0  0  0  0  0  0  0  0  0  0  0  0
   12.4597   21.3846   43.0959 H   0  0  0  0  0  0  0  0  0  0  0  0
    9.9455   23.3412   40.1874 H   0  0  0  0  0  0  0  0  0  0  0  0
   11.3683   22.4526   38.3416 H   0  0  0  0  0  0  0  0  0  0  0  0
   15.3327   17.1854   38.5701 H   0  0  0  0  0  0  0  0  0  0  0  0
   15.7313   14.9407   37.5539 H   0  0  0  0  0  0  0  0  0  0  0  0
  1  2  2  0
  2  3  1  0
  2  4  1  0
  4  5  2  0
  5  6  1  0
  6  7  2  0
  7  8  1  0
  8  9  1  0
  9 10  2  0
 10 11  1  0
 11 12  1  0
 12 13  1  0
 13 14  2  0
 14 15  1  0
 15 16  2  0
 16 17  1  0
 17 18  1  0
 17 19  2  0
 10 20  1  0
 20 21  1  0
 21 22  2  0
 22 23  1  0
 23 24  2  0
 24 25  1  0
 24 26  1  0
 26 27  2  0
 20 28  2  0
  7 29  1  0
 29 30  2  0
 30  4  1  0
 28  8  1  0
 19 13  1  0
 27 21  1  0
  5 31  1  0
  6 32  1  0
  9 33  1  0
 11 34  1  0
 11 35  1  0
 12 36  1  0
 14 37  1  0
 15 38  1  0
 16 39  1  0
 19 40  1  0
 22 41  1  0
 23 42  1  0
 26 43  1  0
 27 44  1  0
 29 45  1  0
 30 46  1  0
M  CHG  1   3  -1
M  END
>  <meeko>  (11) 
{"is_sidechain": [false], "free_energy": -7.297, "intermolecular_energy": -10.351, "internal_energy": -1.215}

> <PREPARED_BY>
siam chowdhury
Computational and Medicinal Chemistry
[Dr. Alam's Research Team] www.alamresearch.org
Arkansas State University

$$$$
5sa23_out
     RDKit          3D

 46 49  0  0  0  0  0  0  0  0999 V2000
    9.4080   21.1870   42.2690 O   0  0  0  0  0  0  0  0  0  0  0  0
   10.5730   21.3130   41.9270 C   0  0  0  0  0  0  0  0  0  0  0  0
   11.6100   21.0000   42.7330 O   0  0  0  0  0  0  0  0  0  0  0  0
   10.9700   21.8530   40.6010 C   0  0  0  0  0  0  0  0  0  0  0  0
   11.8600   21.1050   39.8210 C   0  0  0  0  0  0  0  0  0  0  0  0
   12.2820   21.5840   38.5730 C   0  0  0  0  0  0  0  0  0  0  0  0
   11.8270   22.8240   38.0990 C   0  0  0  0  0  0  0  0  0  0  0  0
   12.2690   23.3030   36.8300 N   0  0  0  0  0  0  0  0  0  0  0  0
   12.1730   24.5800   36.3380 C   0  0  0  0  0  0  0  0  0  0  0  0
   12.7020   24.5780   35.0640 C   0  0  0  0  0  0  0  0  0  0  0  0
   12.8220   25.7610   34.1530 C   0  0  0  0  0  0  0  0  0  0  0  0
   14.2000   26.2140   33.9470 N   0  0  0  0  0  0  0  0  0  0  0  0
   14.9120   25.7510   32.8340 C   0  0  0  0  0  0  0  0  0  0  0  0
   14.2410   25.6230   31.6070 C   0  0  0  0  0  0  0  0  0  0  0  0
   14.9040   25.1910   30.4520 C   0  0  0  0  0  0  0  0  0  0  0  0
   16.2650   24.9120   30.5030 C   0  0  0  0  0  0  0  0  0  0  0  0
   16.9430   25.0700   31.7050 C   0  0  0  0  0  0  0  0  0  0  0  0
   18.2580   24.8190   31.7520 F   0  0  0  0  0  0  0  0  0  0  0  0
   16.2850   25.4910   32.8590 C   0  0  0  0  0  0  0  0  0  0  0  0
   13.0740   23.2160   34.8330 C   0  0  0  0  0  0  0  0  0  0  0  0
   13.6180   22.5980   33.6120 C   0  0  0  0  0  0  0  0  0  0  0  0
   14.9650   22.2080   33.5350 C   0  0  0  0  0  0  0  0  0  0  0  0
   15.4870   21.6120   32.3850 C   0  0  0  0  0  0  0  0  0  0  0  0
   14.6660   21.4320   31.2830 C   0  0  0  0  0  0  0  0  0  0  0  0
   15.1680   20.8760   30.1730 F   0  0  0  0  0  0  0  0  0  0  0  0
   13.3360   21.8340   31.3170 C   0  0  0  0  0  0  0  0  0  0  0  0
   12.8120   22.4140   32.4770 C   0  0  0  0  0  0  0  0  0  0  0  0
   12.8540   22.4760   35.9320 N   0  0  0  0  0  0  0  0  0  0  0  0
   10.9460   23.5770   38.8920 C   0  0  0  0  0  0  0  0  0  0  0  0
   10.5240   23.0950   40.1390 C   0  0  0  0  0  0  0  0  0  0  0  0
   12.2299   20.1367   40.1892 H   0  0  0  0  0  0  0  0  0  0  0  0
   12.9733   20.9849   37.9621 H   0  0  0  0  0  0  0  0  0  0  0  0
   11.7505   25.4486   36.8643 H   0  0  0  0  0  0  0  0  0  0  0  0
   12.3967   25.4899   33.1754 H   0  0  0  0  0  0  0  0  0  0  0  0
   12.2817   26.5901   34.6333 H   0  0  0  0  0  0  0  0  0  0  0  0
   14.6210   26.8350   34.5840 H   0  0  0  0  0  0  0  0  0  0  0  0
   13.1700   25.8678   31.5521 H   0  0  0  0  0  0  0  0  0  0  0  0
   14.3507   25.0729   29.5087 H   0  0  0  0  0  0  0  0  0  0  0  0
   16.7979   24.5706   29.6033 H   0  0  0  0  0  0  0  0  0  0  0  0
   16.8492   25.6194   33.7945 H   0  0  0  0  0  0  0  0  0  0  0  0
   15.6236   22.3758   34.3999 H   0  0  0  0  0  0  0  0  0  0  0  0
   16.5381   21.2890   32.3541 H   0  0  0  0  0  0  0  0  0  0  0  0
   12.6963   21.6962   30.4328 H   0  0  0  0  0  0  0  0  0  0  0  0
   11.7583   22.7290   32.5003 H   0  0  0  0  0  0  0  0  0  0  0  0
   10.5846   24.5517   38.5323 H   0  0  0  0  0  0  0  0  0  0  0  0
    9.8397   23.6959   40.7560 H   0  0  0  0  0  0  0  0  0  0  0  0
  1  2  2  0
  2  3  1  0
  2  4  1  0
  4  5  2  0
  5  6  1  0
  6  7  2  0
  7  8  1  0
  8  9  1  0
  9 10  2  0
 10 11  1  0
 11 12  1  0
 12 13  1  0
 13 14  2  0
 14 15  1  0
 15 16  2  0
 16 17  1  0
 17 18  1  0
 17 19  2  0
 10 20  1  0
 20 21  1  0
 21 22  2  0
 22 23  1  0
 23 24  2  0
 24 25  1  0
 24 26  1  0
 26 27  2  0
 20 28  2  0
  7 29  1  0
 29 30  2  0
 30  4  1  0
 28  8  1  0
 19 13  1  0
 27 21  1  0
  5 31  1  0
  6 32  1  0
  9 33  1  0
 11 34  1  0
 11 35  1  0
 12 36  1  0
 14 37  1  0
 15 38  1  0
 16 39  1  0
 19 40  1  0
 22 41  1  0
 23 42  1  0
 26 43  1  0
 27 44  1  0
 29 45  1  0
 30 46  1  0
M  CHG  1   3  -1
M  END
>  <meeko>  (12) 
{"is_sidechain": [false], "free_energy": -7.289, "intermolecular_energy": -9.246, "internal_energy": -2.309}

> <PREPARED_BY>
siam chowdhury
Computational and Medicinal Chemistry
[Dr. Alam's Research Team] www.alamresearch.org
Arkansas State University

$$$$
5sa23_out
     RDKit          3D

 46 49  0  0  0  0  0  0  0  0999 V2000
   10.7980   26.5030   37.9010 O   0  0  0  0  0  0  0  0  0  0  0  0
   11.6900   25.9610   37.2670 C   0  0  0  0  0  0  0  0  0  0  0  0
   12.3060   26.5520   36.2210 O   0  0  0  0  0  0  0  0  0  0  0  0
   12.1660   24.5850   37.5600 C   0  0  0  0  0  0  0  0  0  0  0  0
   13.3480   24.1490   36.9490 C   0  0  0  0  0  0  0  0  0  0  0  0
   13.8250   22.8510   37.1750 C   0  0  0  0  0  0  0  0  0  0  0  0
   13.1140   21.9700   38.0070 C   0  0  0  0  0  0  0  0  0  0  0  0
   13.6080   20.6490   38.2250 N   0  0  0  0  0  0  0  0  0  0  0  0
   14.1450   20.1380   39.3790 C   0  0  0  0  0  0  0  0  0  0  0  0
   14.5110   18.8320   39.1250 C   0  0  0  0  0  0  0  0  0  0  0  0
   15.1250   17.8790   40.1050 C   0  0  0  0  0  0  0  0  0  0  0  0
   16.5430   18.1330   40.3710 N   0  0  0  0  0  0  0  0  0  0  0  0
   17.5070   17.6110   39.5000 C   0  0  0  0  0  0  0  0  0  0  0  0
   17.8890   16.2660   39.6420 C   0  0  0  0  0  0  0  0  0  0  0  0
   18.8280   15.6790   38.7860 C   0  0  0  0  0  0  0  0  0  0  0  0
   19.3750   16.4250   37.7480 C   0  0  0  0  0  0  0  0  0  0  0  0
   18.9750   17.7440   37.5800 C   0  0  0  0  0  0  0  0  0  0  0  0
   19.4870   18.4600   36.5690 F   0  0  0  0  0  0  0  0  0  0  0  0
   18.0470   18.3360   38.4360 C   0  0  0  0  0  0  0  0  0  0  0  0
   14.1910   18.6310   37.7460 C   0  0  0  0  0  0  0  0  0  0  0  0
   14.4360   17.4520   36.9000 C   0  0  0  0  0  0  0  0  0  0  0  0
   14.2450   17.5030   35.5100 C   0  0  0  0  0  0  0  0  0  0  0  0
   14.4840   16.3920   34.6980 C   0  0  0  0  0  0  0  0  0  0  0  0
   14.8870   15.2020   35.2810 C   0  0  0  0  0  0  0  0  0  0  0  0
   15.1010   14.1310   34.5070 F   0  0  0  0  0  0  0  0  0  0  0  0
   15.0570   15.1090   36.6580 C   0  0  0  0  0  0  0  0  0  0  0  0
   14.8350   16.2300   37.4650 C   0  0  0  0  0  0  0  0  0  0  0  0
   13.5960   19.7230   37.2380 N   0  0  0  0  0  0  0  0  0  0  0  0
   11.9220   22.4080   38.6060 C   0  0  0  0  0  0  0  0  0  0  0  0
   11.4480   23.7070   38.3780 C   0  0  0  0  0  0  0  0  0  0  0  0
   13.9052   24.8292   36.2880 H   0  0  0  0  0  0  0  0  0  0  0  0
   14.7600   22.5204   36.6990 H   0  0  0  0  0  0  0  0  0  0  0  0
   14.2625   20.6721   40.3334 H   0  0  0  0  0  0  0  0  0  0  0  0
   14.5752   17.9565   41.0546 H   0  0  0  0  0  0  0  0  0  0  0  0
   15.0584   16.8756   39.6593 H   0  0  0  0  0  0  0  0  0  0  0  0
   16.8160   18.6650   41.1530 H   0  0  0  0  0  0  0  0  0  0  0  0
   17.4401   15.6612   40.4437 H   0  0  0  0  0  0  0  0  0  0  0  0
   19.1318   14.6322   38.9338 H   0  0  0  0  0  0  0  0  0  0  0  0
   20.1148   15.9762   37.0689 H   0  0  0  0  0  0  0  0  0  0  0  0
   17.7389   19.3792   38.2722 H   0  0  0  0  0  0  0  0  0  0  0  0
   13.8989   18.4401   35.0496 H   0  0  0  0  0  0  0  0  0  0  0  0
   14.3537   16.4613   33.6080 H   0  0  0  0  0  0  0  0  0  0  0  0
   15.3655   14.1557   37.1119 H   0  0  0  0  0  0  0  0  0  0  0  0
   14.9745   16.1533   38.5534 H   0  0  0  0  0  0  0  0  0  0  0  0
   11.3563   21.7269   39.2587 H   0  0  0  0  0  0  0  0  0  0  0  0
   10.5079   24.0371   38.8441 H   0  0  0  0  0  0  0  0  0  0  0  0
  1  2  2  0
  2  3  1  0
  2  4  1  0
  4  5  2  0
  5  6  1  0
  6  7  2  0
  7  8  1  0
  8  9  1  0
  9 10  2  0
 10 11  1  0
 11 12  1  0
 12 13  1  0
 13 14  2  0
 14 15  1  0
 15 16  2  0
 16 17  1  0
 17 18  1  0
 17 19  2  0
 10 20  1  0
 20 21  1  0
 21 22  2  0
 22 23  1  0
 23 24  2  0
 24 25  1  0
 24 26  1  0
 26 27  2  0
 20 28  2  0
  7 29  1  0
 29 30  2  0
 30  4  1  0
 28  8  1  0
 19 13  1  0
 27 21  1  0
  5 31  1  0
  6 32  1  0
  9 33  1  0
 11 34  1  0
 11 35  1  0
 12 36  1  0
 14 37  1  0
 15 38  1  0
 16 39  1  0
 19 40  1  0
 22 41  1  0
 23 42  1  0
 26 43  1  0
 27 44  1  0
 29 45  1  0
 30 46  1  0
M  CHG  1   3  -1
M  END
>  <meeko>  (13) 
{"is_sidechain": [false], "free_energy": -7.264, "intermolecular_energy": -10.253, "internal_energy": -1.268}

> <PREPARED_BY>
siam chowdhury
Computational and Medicinal Chemistry
[Dr. Alam's Research Team] www.alamresearch.org
Arkansas State University

$$$$
5sa23_out
     RDKit          3D

 46 49  0  0  0  0  0  0  0  0999 V2000
   19.0700   20.6300   29.3730 O   0  0  0  0  0  0  0  0  0  0  0  0
   18.1140   21.3570   29.5990 C   0  0  0  0  0  0  0  0  0  0  0  0
   17.3910   21.9390   28.6190 O   0  0  0  0  0  0  0  0  0  0  0  0
   17.6700   21.6990   30.9740 C   0  0  0  0  0  0  0  0  0  0  0  0
   16.3480   22.1230   31.1570 C   0  0  0  0  0  0  0  0  0  0  0  0
   15.8880   22.4800   32.4310 C   0  0  0  0  0  0  0  0  0  0  0  0
   16.7530   22.4300   33.5360 C   0  0  0  0  0  0  0  0  0  0  0  0
   16.2740   22.8020   34.8280 N   0  0  0  0  0  0  0  0  0  0  0  0
   16.7850   22.4320   36.0460 C   0  0  0  0  0  0  0  0  0  0  0  0
   15.9900   23.0010   37.0210 C   0  0  0  0  0  0  0  0  0  0  0  0
   16.1840   22.8800   38.5020 C   0  0  0  0  0  0  0  0  0  0  0  0
   15.5910   21.6720   39.0810 N   0  0  0  0  0  0  0  0  0  0  0  0
   14.2070   21.6150   39.2770 C   0  0  0  0  0  0  0  0  0  0  0  0
   13.4640   20.6440   38.5840 C   0  0  0  0  0  0  0  0  0  0  0  0
   12.0810   20.5200   38.7580 C   0  0  0  0  0  0  0  0  0  0  0  0
   11.4230   21.3500   39.6580 C   0  0  0  0  0  0  0  0  0  0  0  0
   12.1560   22.2900   40.3730 C   0  0  0  0  0  0  0  0  0  0  0  0
   11.5260   23.0780   41.2540 F   0  0  0  0  0  0  0  0  0  0  0  0
   13.5320   22.4230   40.1960 C   0  0  0  0  0  0  0  0  0  0  0  0
   14.9690   23.6890   36.2950 C   0  0  0  0  0  0  0  0  0  0  0  0
   13.7940   24.4130   36.8070 C   0  0  0  0  0  0  0  0  0  0  0  0
   12.5150   23.8350   36.7780 C   0  0  0  0  0  0  0  0  0  0  0  0
   11.3970   24.5110   37.2710 C   0  0  0  0  0  0  0  0  0  0  0  0
   11.5480   25.7940   37.7700 C   0  0  0  0  0  0  0  0  0  0  0  0
   10.4740   26.4510   38.2290 F   0  0  0  0  0  0  0  0  0  0  0  0
   12.7950   26.4070   37.7860 C   0  0  0  0  0  0  0  0  0  0  0  0
   13.9160   25.7190   37.3090 C   0  0  0  0  0  0  0  0  0  0  0  0
   15.1910   23.6010   34.9730 N   0  0  0  0  0  0  0  0  0  0  0  0
   18.0820   22.0190   33.3450 C   0  0  0  0  0  0  0  0  0  0  0  0
   18.5390   21.6600   32.0690 C   0  0  0  0  0  0  0  0  0  0  0  0
   15.6666   22.1760   30.2951 H   0  0  0  0  0  0  0  0  0  0  0  0
   14.8446   22.8009   32.5664 H   0  0  0  0  0  0  0  0  0  0  0  0
   17.6675   21.7975   36.2152 H   0  0  0  0  0  0  0  0  0  0  0  0
   17.2641   22.8698   38.7103 H   0  0  0  0  0  0  0  0  0  0  0  0
   15.6736   23.7388   38.9624 H   0  0  0  0  0  0  0  0  0  0  0  0
   16.1610   20.9080   39.3290 H   0  0  0  0  0  0  0  0  0  0  0  0
   13.9813   19.9661   37.8891 H   0  0  0  0  0  0  0  0  0  0  0  0
   11.5172   19.7691   38.1851 H   0  0  0  0  0  0  0  0  0  0  0  0
   10.3359   21.2641   39.8026 H   0  0  0  0  0  0  0  0  0  0  0  0
   14.0896   23.1678   40.7827 H   0  0  0  0  0  0  0  0  0  0  0  0
   12.3906   22.8263   36.3572 H   0  0  0  0  0  0  0  0  0  0  0  0
   10.4078   24.0300   37.2631 H   0  0  0  0  0  0  0  0  0  0  0  0
   12.9006   27.4313   38.1730 H   0  0  0  0  0  0  0  0  0  0  0  0
   14.9023   26.2056   37.3273 H   0  0  0  0  0  0  0  0  0  0  0  0
   18.7696   21.9784   34.2027 H   0  0  0  0  0  0  0  0  0  0  0  0
   19.5841   21.3468   31.9288 H   0  0  0  0  0  0  0  0  0  0  0  0
  1  2  2  0
  2  3  1  0
  2  4  1  0
  4  5  2  0
  5  6  1  0
  6  7  2  0
  7  8  1  0
  8  9  1  0
  9 10  2  0
 10 11  1  0
 11 12  1  0
 12 13  1  0
 13 14  2  0
 14 15  1  0
 15 16  2  0
 16 17  1  0
 17 18  1  0
 17 19  2  0
 10 20  1  0
 20 21  1  0
 21 22  2  0
 22 23  1  0
 23 24  2  0
 24 25  1  0
 24 26  1  0
 26 27  2  0
 20 28  2  0
  7 29  1  0
 29 30  2  0
 30  4  1  0
 28  8  1  0
 19 13  1  0
 27 21  1  0
  5 31  1  0
  6 32  1  0
  9 33  1  0
 11 34  1  0
 11 35  1  0
 12 36  1  0
 14 37  1  0
 15 38  1  0
 16 39  1  0
 19 40  1  0
 22 41  1  0
 23 42  1  0
 26 43  1  0
 27 44  1  0
 29 45  1  0
 30 46  1  0
M  CHG  1   3  -1
M  END
>  <meeko>  (14) 
{"is_sidechain": [false], "free_energy": -7.166, "intermolecular_energy": -9.364, "internal_energy": -2.026}

> <PREPARED_BY>
siam chowdhury
Computational and Medicinal Chemistry
[Dr. Alam's Research Team] www.alamresearch.org
Arkansas State University

$$$$
5sa23_out
     RDKit          3D

 46 49  0  0  0  0  0  0  0  0999 V2000
    9.7020   20.5500   42.2790 O   0  0  0  0  0  0  0  0  0  0  0  0
   10.3080   21.5760   42.0090 C   0  0  0  0  0  0  0  0  0  0  0  0
   10.1850   22.7090   42.7330 O   0  0  0  0  0  0  0  0  0  0  0  0
   11.2170   21.6920   40.8400 C   0  0  0  0  0  0  0  0  0  0  0  0
   11.1220   22.8360   40.0380 C   0  0  0  0  0  0  0  0  0  0  0  0
   11.9410   22.9800   38.9110 C   0  0  0  0  0  0  0  0  0  0  0  0
   12.8560   21.9720   38.5660 C   0  0  0  0  0  0  0  0  0  0  0  0
   13.6810   22.1290   37.4120 N   0  0  0  0  0  0  0  0  0  0  0  0
   15.0450   22.2700   37.3730 C   0  0  0  0  0  0  0  0  0  0  0  0
   15.4100   22.4190   36.0510 C   0  0  0  0  0  0  0  0  0  0  0  0
   16.8060   22.5860   35.5320 C   0  0  0  0  0  0  0  0  0  0  0  0
   17.3650   21.3720   34.9310 N   0  0  0  0  0  0  0  0  0  0  0  0
   17.0340   21.0480   33.6110 C   0  0  0  0  0  0  0  0  0  0  0  0
   17.2900   21.9890   32.5990 C   0  0  0  0  0  0  0  0  0  0  0  0
   17.0070   21.7140   31.2560 C   0  0  0  0  0  0  0  0  0  0  0  0
   16.4910   20.4740   30.9010 C   0  0  0  0  0  0  0  0  0  0  0  0
   16.2680   19.5250   31.8910 C   0  0  0  0  0  0  0  0  0  0  0  0
   15.7880   18.3220   31.5490 F   0  0  0  0  0  0  0  0  0  0  0  0
   16.5410   19.7970   33.2310 C   0  0  0  0  0  0  0  0  0  0  0  0
   14.1750   22.3950   35.3320 C   0  0  0  0  0  0  0  0  0  0  0  0
   13.9350   22.5910   33.8930 C   0  0  0  0  0  0  0  0  0  0  0  0
   14.2250   23.8150   33.2680 C   0  0  0  0  0  0  0  0  0  0  0  0
   14.0110   24.0070   31.9020 C   0  0  0  0  0  0  0  0  0  0  0  0
   13.4680   22.9770   31.1510 C   0  0  0  0  0  0  0  0  0  0  0  0
   13.2460   23.1630   29.8440 F   0  0  0  0  0  0  0  0  0  0  0  0
   13.1420   21.7630   31.7440 C   0  0  0  0  0  0  0  0  0  0  0  0
   13.3760   21.5680   33.1100 C   0  0  0  0  0  0  0  0  0  0  0  0
   13.1490   22.1640   36.1680 N   0  0  0  0  0  0  0  0  0  0  0  0
   12.9370   20.8200   39.3650 C   0  0  0  0  0  0  0  0  0  0  0  0
   12.1170   20.6790   40.4940 C   0  0  0  0  0  0  0  0  0  0  0  0
   10.4004   23.6256   40.2945 H   0  0  0  0  0  0  0  0  0  0  0  0
   11.8672   23.8870   38.2931 H   0  0  0  0  0  0  0  0  0  0  0  0
   15.7241   22.2651   38.2383 H   0  0  0  0  0  0  0  0  0  0  0  0
   16.7995   23.3787   34.7694 H   0  0  0  0  0  0  0  0  0  0  0  0
   17.4400   22.8360   36.3954 H   0  0  0  0  0  0  0  0  0  0  0  0
   17.9650   20.7900   35.4510 H   0  0  0  0  0  0  0  0  0  0  0  0
   17.7226   22.9638   32.8684 H   0  0  0  0  0  0  0  0  0  0  0  0
   17.1924   22.4764   30.4851 H   0  0  0  0  0  0  0  0  0  0  0  0
   16.2619   20.2464   29.8495 H   0  0  0  0  0  0  0  0  0  0  0  0
   16.3674   19.0228   33.9929 H   0  0  0  0  0  0  0  0  0  0  0  0
   14.6304   24.6421   33.8693 H   0  0  0  0  0  0  0  0  0  0  0  0
   14.2704   24.9648   31.4274 H   0  0  0  0  0  0  0  0  0  0  0  0
   12.7006   20.9563   31.1403 H   0  0  0  0  0  0  0  0  0  0  0  0
   13.1197   20.6045   33.5746 H   0  0  0  0  0  0  0  0  0  0  0  0
   13.6484   20.0228   39.1036 H   0  0  0  0  0  0  0  0  0  0  0  0
   12.1819   19.7693   41.1090 H   0  0  0  0  0  0  0  0  0  0  0  0
  1  2  2  0
  2  3  1  0
  2  4  1  0
  4  5  2  0
  5  6  1  0
  6  7  2  0
  7  8  1  0
  8  9  1  0
  9 10  2  0
 10 11  1  0
 11 12  1  0
 12 13  1  0
 13 14  2  0
 14 15  1  0
 15 16  2  0
 16 17  1  0
 17 18  1  0
 17 19  2  0
 10 20  1  0
 20 21  1  0
 21 22  2  0
 22 23  1  0
 23 24  2  0
 24 25  1  0
 24 26  1  0
 26 27  2  0
 20 28  2  0
  7 29  1  0
 29 30  2  0
 30  4  1  0
 28  8  1  0
 19 13  1  0
 27 21  1  0
  5 31  1  0
  6 32  1  0
  9 33  1  0
 11 34  1  0
 11 35  1  0
 12 36  1  0
 14 37  1  0
 15 38  1  0
 16 39  1  0
 19 40  1  0
 22 41  1  0
 23 42  1  0
 26 43  1  0
 27 44  1  0
 29 45  1  0
 30 46  1  0
M  CHG  1   3  -1
M  END
>  <meeko>  (15) 
{"is_sidechain": [false], "free_energy": -7.154, "intermolecular_energy": -9.064, "internal_energy": -2.31}

> <PREPARED_BY>
siam chowdhury
Computational and Medicinal Chemistry
[Dr. Alam's Research Team] www.alamresearch.org
Arkansas State University

$$$$
5sa23_out
     RDKit          3D

 46 49  0  0  0  0  0  0  0  0999 V2000
   19.4180   15.7990   39.0180 O   0  0  0  0  0  0  0  0  0  0  0  0
   18.2970   16.0330   39.4430 C   0  0  0  0  0  0  0  0  0  0  0  0
   17.7000   15.2740   40.3860 O   0  0  0  0  0  0  0  0  0  0  0  0
   17.4640   17.1570   38.9430 C   0  0  0  0  0  0  0  0  0  0  0  0
   16.3680   17.5630   39.7140 C   0  0  0  0  0  0  0  0  0  0  0  0
   15.5380   18.6030   39.2740 C   0  0  0  0  0  0  0  0  0  0  0  0
   15.7900   19.2380   38.0480 C   0  0  0  0  0  0  0  0  0  0  0  0
   14.9340   20.2920   37.6080 N   0  0  0  0  0  0  0  0  0  0  0  0
   13.7750   20.7290   38.1980 C   0  0  0  0  0  0  0  0  0  0  0  0
   13.2670   21.7460   37.4160 C   0  0  0  0  0  0  0  0  0  0  0  0
   12.0200   22.5320   37.6860 C   0  0  0  0  0  0  0  0  0  0  0  0
   12.0550   23.2860   38.9410 N   0  0  0  0  0  0  0  0  0  0  0  0
   11.8650   22.6090   40.1510 C   0  0  0  0  0  0  0  0  0  0  0  0
   12.8910   22.6380   41.1110 C   0  0  0  0  0  0  0  0  0  0  0  0
   12.7500   22.0030   42.3500 C   0  0  0  0  0  0  0  0  0  0  0  0
   11.5610   21.3540   42.6610 C   0  0  0  0  0  0  0  0  0  0  0  0
   10.5290   21.3510   41.7310 C   0  0  0  0  0  0  0  0  0  0  0  0
    9.3750   20.7420   42.0360 F   0  0  0  0  0  0  0  0  0  0  0  0
   10.6680   21.9750   40.4920 C   0  0  0  0  0  0  0  0  0  0  0  0
   14.1790   21.8450   36.3190 C   0  0  0  0  0  0  0  0  0  0  0  0
   14.1060   22.7050   35.1260 C   0  0  0  0  0  0  0  0  0  0  0  0
   14.8720   23.8770   35.0280 C   0  0  0  0  0  0  0  0  0  0  0  0
   14.8150   24.6930   33.8960 C   0  0  0  0  0  0  0  0  0  0  0  0
   13.9590   24.3560   32.8610 C   0  0  0  0  0  0  0  0  0  0  0  0
   13.8910   25.1460   31.7810 F   0  0  0  0  0  0  0  0  0  0  0  0
   13.1650   23.2180   32.9390 C   0  0  0  0  0  0  0  0  0  0  0  0
   13.2380   22.3930   34.0660 C   0  0  0  0  0  0  0  0  0  0  0  0
   15.2070   20.9960   36.4840 N   0  0  0  0  0  0  0  0  0  0  0  0
   16.8820   18.8180   37.2710 C   0  0  0  0  0  0  0  0  0  0  0  0
   17.7110   17.7790   37.7150 C   0  0  0  0  0  0  0  0  0  0  0  0
   16.1572   17.0627   40.6707 H   0  0  0  0  0  0  0  0  0  0  0  0
   14.6859   18.9228   39.8918 H   0  0  0  0  0  0  0  0  0  0  0  0
   13.3313   20.3393   39.1260 H   0  0  0  0  0  0  0  0  0  0  0  0
   11.8721   23.2422   36.8591 H   0  0  0  0  0  0  0  0  0  0  0  0
   11.1972   21.8069   37.7715 H   0  0  0  0  0  0  0  0  0  0  0  0
   12.2100   24.2580   38.9340 H   0  0  0  0  0  0  0  0  0  0  0  0
   13.8256   23.1717   40.8834 H   0  0  0  0  0  0  0  0  0  0  0  0
   13.5771   22.0174   43.0751 H   0  0  0  0  0  0  0  0  0  0  0  0
   11.4387   20.8494   43.6307 H   0  0  0  0  0  0  0  0  0  0  0  0
    9.8304   21.9680   39.7790 H   0  0  0  0  0  0  0  0  0  0  0  0
   15.5321   24.1592   35.8615 H   0  0  0  0  0  0  0  0  0  0  0  0
   15.4431   25.5934   33.8273 H   0  0  0  0  0  0  0  0  0  0  0  0
   12.4802   22.9666   32.1157 H   0  0  0  0  0  0  0  0  0  0  0  0
   12.6101   21.4916   34.1231 H   0  0  0  0  0  0  0  0  0  0  0  0
   17.0879   19.3077   36.3078 H   0  0  0  0  0  0  0  0  0  0  0  0
   18.5589   17.4515   37.0955 H   0  0  0  0  0  0  0  0  0  0  0  0
  1  2  2  0
  2  3  1  0
  2  4  1  0
  4  5  2  0
  5  6  1  0
  6  7  2  0
  7  8  1  0
  8  9  1  0
  9 10  2  0
 10 11  1  0
 11 12  1  0
 12 13  1  0
 13 14  2  0
 14 15  1  0
 15 16  2  0
 16 17  1  0
 17 18  1  0
 17 19  2  0
 10 20  1  0
 20 21  1  0
 21 22  2  0
 22 23  1  0
 23 24  2  0
 24 25  1  0
 24 26  1  0
 26 27  2  0
 20 28  2  0
  7 29  1  0
 29 30  2  0
 30  4  1  0
 28  8  1  0
 19 13  1  0
 27 21  1  0
  5 31  1  0
  6 32  1  0
  9 33  1  0
 11 34  1  0
 11 35  1  0
 12 36  1  0
 14 37  1  0
 15 38  1  0
 16 39  1  0
 19 40  1  0
 22 41  1  0
 23 42  1  0
 26 43  1  0
 27 44  1  0
 29 45  1  0
 30 46  1  0
M  CHG  1   3  -1
M  END
>  <meeko>  (16) 
{"is_sidechain": [false], "free_energy": -7.139, "intermolecular_energy": -10.423, "internal_energy": -0.931}

> <PREPARED_BY>
siam chowdhury
Computational and Medicinal Chemistry
[Dr. Alam's Research Team] www.alamresearch.org
Arkansas State University

$$$$
5sa23_out
     RDKit          3D

 46 49  0  0  0  0  0  0  0  0999 V2000
   13.0270   22.7850   30.0330 O   0  0  0  0  0  0  0  0  0  0  0  0
   14.0120   22.3040   30.5710 C   0  0  0  0  0  0  0  0  0  0  0  0
   15.1530   22.0360   29.9000 O   0  0  0  0  0  0  0  0  0  0  0  0
   14.0460   21.9340   32.0090 C   0  0  0  0  0  0  0  0  0  0  0  0
   13.3230   22.7220   32.9120 C   0  0  0  0  0  0  0  0  0  0  0  0
   13.3420   22.4280   34.2820 C   0  0  0  0  0  0  0  0  0  0  0  0
   14.0980   21.3480   34.7630 C   0  0  0  0  0  0  0  0  0  0  0  0
   14.1140   21.0620   36.1620 N   0  0  0  0  0  0  0  0  0  0  0  0
   14.8500   20.1020   36.8100 C   0  0  0  0  0  0  0  0  0  0  0  0
   14.5290   20.1660   38.1510 C   0  0  0  0  0  0  0  0  0  0  0  0
   15.1060   19.3140   39.2400 C   0  0  0  0  0  0  0  0  0  0  0  0
   14.4880   17.9890   39.3460 N   0  0  0  0  0  0  0  0  0  0  0  0
   14.7360   17.0380   38.3510 C   0  0  0  0  0  0  0  0  0  0  0  0
   16.0460   16.5570   38.1850 C   0  0  0  0  0  0  0  0  0  0  0  0
   16.3530   15.5860   37.2250 C   0  0  0  0  0  0  0  0  0  0  0  0
   15.3400   15.0540   36.4350 C   0  0  0  0  0  0  0  0  0  0  0  0
   14.0370   15.4990   36.6160 C   0  0  0  0  0  0  0  0  0  0  0  0
   13.0560   14.9750   35.8690 F   0  0  0  0  0  0  0  0  0  0  0  0
   13.7280   16.4730   37.5650 C   0  0  0  0  0  0  0  0  0  0  0  0
   13.5370   21.1920   38.2330 C   0  0  0  0  0  0  0  0  0  0  0  0
   12.7680   21.6460   39.4040 C   0  0  0  0  0  0  0  0  0  0  0  0
   13.1820   21.3370   40.7090 C   0  0  0  0  0  0  0  0  0  0  0  0
   12.4640   21.7710   41.8250 C   0  0  0  0  0  0  0  0  0  0  0  0
   11.2980   22.4950   41.6400 C   0  0  0  0  0  0  0  0  0  0  0  0
   10.5980   22.9000   42.7080 F   0  0  0  0  0  0  0  0  0  0  0  0
   10.8440   22.7930   40.3610 C   0  0  0  0  0  0  0  0  0  0  0  0
   11.5760   22.3720   39.2450 C   0  0  0  0  0  0  0  0  0  0  0  0
   13.3420   21.7570   37.0300 N   0  0  0  0  0  0  0  0  0  0  0  0
   14.8340   20.5690   33.8550 C   0  0  0  0  0  0  0  0  0  0  0  0
   14.8110   20.8650   32.4850 C   0  0  0  0  0  0  0  0  0  0  0  0
   12.7366   23.5769   32.5442 H   0  0  0  0  0  0  0  0  0  0  0  0
   12.7621   23.0462   34.9831 H   0  0  0  0  0  0  0  0  0  0  0  0
   15.5656   19.4078   36.3453 H   0  0  0  0  0  0  0  0  0  0  0  0
   16.1801   19.1808   39.0436 H   0  0  0  0  0  0  0  0  0  0  0  0
   14.9125   19.8342   40.1897 H   0  0  0  0  0  0  0  0  0  0  0  0
   13.9050   17.7720   40.1080 H   0  0  0  0  0  0  0  0  0  0  0  0
   16.8487   16.9529   38.8245 H   0  0  0  0  0  0  0  0  0  0  0  0
   17.3909   15.2453   37.0960 H   0  0  0  0  0  0  0  0  0  0  0  0
   15.5677   14.2906   35.6765 H   0  0  0  0  0  0  0  0  0  0  0  0
   12.6853   16.7983   37.6956 H   0  0  0  0  0  0  0  0  0  0  0  0
   14.0934   20.7389   40.8560 H   0  0  0  0  0  0  0  0  0  0  0  0
   12.8204   21.5405   42.8398 H   0  0  0  0  0  0  0  0  0  0  0  0
    9.9105   23.3590   40.2259 H   0  0  0  0  0  0  0  0  0  0  0  0
   11.2146   22.6118   38.2341 H   0  0  0  0  0  0  0  0  0  0  0  0
   15.4321   19.7215   34.2212 H   0  0  0  0  0  0  0  0  0  0  0  0
   15.3967   20.2542   31.7822 H   0  0  0  0  0  0  0  0  0  0  0  0
  1  2  2  0
  2  3  1  0
  2  4  1  0
  4  5  2  0
  5  6  1  0
  6  7  2  0
  7  8  1  0
  8  9  1  0
  9 10  2  0
 10 11  1  0
 11 12  1  0
 12 13  1  0
 13 14  2  0
 14 15  1  0
 15 16  2  0
 16 17  1  0
 17 18  1  0
 17 19  2  0
 10 20  1  0
 20 21  1  0
 21 22  2  0
 22 23  1  0
 23 24  2  0
 24 25  1  0
 24 26  1  0
 26 27  2  0
 20 28  2  0
  7 29  1  0
 29 30  2  0
 30  4  1  0
 28  8  1  0
 19 13  1  0
 27 21  1  0
  5 31  1  0
  6 32  1  0
  9 33  1  0
 11 34  1  0
 11 35  1  0
 12 36  1  0
 14 37  1  0
 15 38  1  0
 16 39  1  0
 19 40  1  0
 22 41  1  0
 23 42  1  0
 26 43  1  0
 27 44  1  0
 29 45  1  0
 30 46  1  0
M  CHG  1   3  -1
M  END
>  <meeko>  (17) 
{"is_sidechain": [false], "free_energy": -7.072, "intermolecular_energy": -10.476, "internal_energy": -0.787}

> <PREPARED_BY>
siam chowdhury
Computational and Medicinal Chemistry
[Dr. Alam's Research Team] www.alamresearch.org
Arkansas State University

$$$$
5sa23_out
     RDKit          3D

 46 49  0  0  0  0  0  0  0  0999 V2000
   13.0770   22.5940   30.2310 O   0  0  0  0  0  0  0  0  0  0  0  0
   14.1460   22.1190   30.5820 C   0  0  0  0  0  0  0  0  0  0  0  0
   15.2240   22.0700   29.7710 O   0  0  0  0  0  0  0  0  0  0  0  0
   14.3600   21.5170   31.9220 C   0  0  0  0  0  0  0  0  0  0  0  0
   13.7860   22.1500   33.0320 C   0  0  0  0  0  0  0  0  0  0  0  0
   13.9800   21.6340   34.3200 C   0  0  0  0  0  0  0  0  0  0  0  0
   14.7610   20.4840   34.5120 C   0  0  0  0  0  0  0  0  0  0  0  0
   14.9550   19.9710   35.8300 N   0  0  0  0  0  0  0  0  0  0  0  0
   14.3110   20.3550   36.9790 C   0  0  0  0  0  0  0  0  0  0  0  0
   14.8340   19.6130   38.0180 C   0  0  0  0  0  0  0  0  0  0  0  0
   14.4160   19.6850   39.4560 C   0  0  0  0  0  0  0  0  0  0  0  0
   14.3840   21.0460   39.9960 N   0  0  0  0  0  0  0  0  0  0  0  0
   13.2310   21.4960   40.6480 C   0  0  0  0  0  0  0  0  0  0  0  0
   13.0810   21.2270   42.0190 C   0  0  0  0  0  0  0  0  0  0  0  0
   11.9630   21.6730   42.7330 C   0  0  0  0  0  0  0  0  0  0  0  0
   10.9900   22.4280   42.0890 C   0  0  0  0  0  0  0  0  0  0  0  0
   11.1480   22.7270   40.7420 C   0  0  0  0  0  0  0  0  0  0  0  0
   10.2200   23.4700   40.1230 F   0  0  0  0  0  0  0  0  0  0  0  0
   12.2550   22.2780   40.0240 C   0  0  0  0  0  0  0  0  0  0  0  0
   15.8450   18.8060   37.4090 C   0  0  0  0  0  0  0  0  0  0  0  0
   16.7930   17.8730   38.0410 C   0  0  0  0  0  0  0  0  0  0  0  0
   16.3410   16.7530   38.7570 C   0  0  0  0  0  0  0  0  0  0  0  0
   17.2330   15.8580   39.3510 C   0  0  0  0  0  0  0  0  0  0  0  0
   18.5940   16.0980   39.2610 C   0  0  0  0  0  0  0  0  0  0  0  0
   19.4510   15.2500   39.8430 F   0  0  0  0  0  0  0  0  0  0  0  0
   19.0740   17.2140   38.5850 C   0  0  0  0  0  0  0  0  0  0  0  0
   18.1780   18.0980   37.9740 C   0  0  0  0  0  0  0  0  0  0  0  0
   15.8630   18.9990   36.0800 N   0  0  0  0  0  0  0  0  0  0  0  0
   15.3460   19.8600   33.3980 C   0  0  0  0  0  0  0  0  0  0  0  0
   15.1510   20.3780   32.1110 C   0  0  0  0  0  0  0  0  0  0  0  0
   13.1797   23.0570   32.8916 H   0  0  0  0  0  0  0  0  0  0  0  0
   13.5180   22.1326   35.1848 H   0  0  0  0  0  0  0  0  0  0  0  0
   13.5210   21.1164   37.0576 H   0  0  0  0  0  0  0  0  0  0  0  0
   13.4086   19.2526   39.5462 H   0  0  0  0  0  0  0  0  0  0  0  0
   15.1672   19.1285   40.0357 H   0  0  0  0  0  0  0  0  0  0  0  0
   15.1650   21.6390   39.9000 H   0  0  0  0  0  0  0  0  0  0  0  0
   13.8597   20.6531   42.5427 H   0  0  0  0  0  0  0  0  0  0  0  0
   11.8548   21.4270   43.7997 H   0  0  0  0  0  0  0  0  0  0  0  0
   10.1064   22.7841   42.6389 H   0  0  0  0  0  0  0  0  0  0  0  0
   12.3611   22.5404   38.9610 H   0  0  0  0  0  0  0  0  0  0  0  0
   15.2594   16.5766   38.8522 H   0  0  0  0  0  0  0  0  0  0  0  0
   16.8588   14.9719   39.8847 H   0  0  0  0  0  0  0  0  0  0  0  0
   20.1565   17.4017   38.5306 H   0  0  0  0  0  0  0  0  0  0  0  0
   18.5617   18.9775   37.4361 H   0  0  0  0  0  0  0  0  0  0  0  0
   15.9612   18.9588   33.5369 H   0  0  0  0  0  0  0  0  0  0  0  0
   15.6213   19.8877   31.2459 H   0  0  0  0  0  0  0  0  0  0  0  0
  1  2  2  0
  2  3  1  0
  2  4  1  0
  4  5  2  0
  5  6  1  0
  6  7  2  0
  7  8  1  0
  8  9  1  0
  9 10  2  0
 10 11  1  0
 11 12  1  0
 12 13  1  0
 13 14  2  0
 14 15  1  0
 15 16  2  0
 16 17  1  0
 17 18  1  0
 17 19  2  0
 10 20  1  0
 20 21  1  0
 21 22  2  0
 22 23  1  0
 23 24  2  0
 24 25  1  0
 24 26  1  0
 26 27  2  0
 20 28  2  0
  7 29  1  0
 29 30  2  0
 30  4  1  0
 28  8  1  0
 19 13  1  0
 27 21  1  0
  5 31  1  0
  6 32  1  0
  9 33  1  0
 11 34  1  0
 11 35  1  0
 12 36  1  0
 14 37  1  0
 15 38  1  0
 16 39  1  0
 19 40  1  0
 22 41  1  0
 23 42  1  0
 26 43  1  0
 27 44  1  0
 29 45  1  0
 30 46  1  0
M  CHG  1   3  -1
M  END
>  <meeko>  (18) 
{"is_sidechain": [false], "free_energy": -7.063, "intermolecular_energy": -10.301, "internal_energy": -0.95}

> <PREPARED_BY>
siam chowdhury
Computational and Medicinal Chemistry
[Dr. Alam's Research Team] www.alamresearch.org
Arkansas State University

$$$$
5sa23_out
     RDKit          3D

 46 49  0  0  0  0  0  0  0  0999 V2000
    9.5500   20.7770   42.2870 O   0  0  0  0  0  0  0  0  0  0  0  0
   10.3040   21.6950   42.0040 C   0  0  0  0  0  0  0  0  0  0  0  0
   10.3820   22.8290   42.7330 O   0  0  0  0  0  0  0  0  0  0  0  0
   11.1880   21.6730   40.8100 C   0  0  0  0  0  0  0  0  0  0  0  0
   11.1980   22.7950   39.9730 C   0  0  0  0  0  0  0  0  0  0  0  0
   11.9970   22.8120   38.8220 C   0  0  0  0  0  0  0  0  0  0  0  0
   12.7850   21.6980   38.4900 C   0  0  0  0  0  0  0  0  0  0  0  0
   13.5900   21.7260   37.3120 N   0  0  0  0  0  0  0  0  0  0  0  0
   14.9600   21.6870   37.2350 C   0  0  0  0  0  0  0  0  0  0  0  0
   15.3040   21.7650   35.9010 C   0  0  0  0  0  0  0  0  0  0  0  0
   16.6950   21.7400   35.3430 C   0  0  0  0  0  0  0  0  0  0  0  0
   17.1110   23.0030   34.7300 N   0  0  0  0  0  0  0  0  0  0  0  0
   17.1660   23.1010   33.3350 C   0  0  0  0  0  0  0  0  0  0  0  0
   17.1690   21.9200   32.5740 C   0  0  0  0  0  0  0  0  0  0  0  0
   17.1960   21.9520   31.1750 C   0  0  0  0  0  0  0  0  0  0  0  0
   17.1880   23.1750   30.5130 C   0  0  0  0  0  0  0  0  0  0  0  0
   17.1500   24.3460   31.2580 C   0  0  0  0  0  0  0  0  0  0  0  0
   17.1240   25.5260   30.6230 F   0  0  0  0  0  0  0  0  0  0  0  0
   17.1320   24.3200   32.6520 C   0  0  0  0  0  0  0  0  0  0  0  0
   14.0560   21.8910   35.2150 C   0  0  0  0  0  0  0  0  0  0  0  0
   13.8040   22.0910   33.7780 C   0  0  0  0  0  0  0  0  0  0  0  0
   13.7220   21.0020   32.8960 C   0  0  0  0  0  0  0  0  0  0  0  0
   13.4730   21.1830   31.5340 C   0  0  0  0  0  0  0  0  0  0  0  0
   13.3370   22.4680   31.0360 C   0  0  0  0  0  0  0  0  0  0  0  0
   13.1140   22.6450   29.7270 F   0  0  0  0  0  0  0  0  0  0  0  0
   13.4420   23.5690   31.8760 C   0  0  0  0  0  0  0  0  0  0  0  0
   13.6720   23.3830   33.2440 C   0  0  0  0  0  0  0  0  0  0  0  0
   13.0330   21.8090   36.0810 N   0  0  0  0  0  0  0  0  0  0  0  0
   12.7600   20.5700   39.3250 C   0  0  0  0  0  0  0  0  0  0  0  0
   11.9610   20.5560   40.4770 C   0  0  0  0  0  0  0  0  0  0  0  0
   10.5755   23.6676   40.2201 H   0  0  0  0  0  0  0  0  0  0  0  0
   12.0070   23.7020   38.1756 H   0  0  0  0  0  0  0  0  0  0  0  0
   15.6568   21.6080   38.0825 H   0  0  0  0  0  0  0  0  0  0  0  0
   17.3922   21.5058   36.1610 H   0  0  0  0  0  0  0  0  0  0  0  0
   16.7065   20.9800   34.5478 H   0  0  0  0  0  0  0  0  0  0  0  0
   17.3490   23.7750   35.2930 H   0  0  0  0  0  0  0  0  0  0  0  0
   17.1497   20.9483   33.0893 H   0  0  0  0  0  0  0  0  0  0  0  0
   17.2234   21.0137   30.6015 H   0  0  0  0  0  0  0  0  0  0  0  0
   17.2115   23.2141   29.4139 H   0  0  0  0  0  0  0  0  0  0  0  0
   17.0909   25.2631   33.2167 H   0  0  0  0  0  0  0  0  0  0  0  0
   13.8570   19.9827   33.2868 H   0  0  0  0  0  0  0  0  0  0  0  0
   13.3859   20.3148   30.8643 H   0  0  0  0  0  0  0  0  0  0  0  0
   13.3446   24.5854   31.4669 H   0  0  0  0  0  0  0  0  0  0  0  0
   13.7501   24.2572   33.9071 H   0  0  0  0  0  0  0  0  0  0  0  0
   13.3716   19.6909   39.0738 H   0  0  0  0  0  0  0  0  0  0  0  0
   11.9420   19.6642   41.1206 H   0  0  0  0  0  0  0  0  0  0  0  0
  1  2  2  0
  2  3  1  0
  2  4  1  0
  4  5  2  0
  5  6  1  0
  6  7  2  0
  7  8  1  0
  8  9  1  0
  9 10  2  0
 10 11  1  0
 11 12  1  0
 12 13  1  0
 13 14  2  0
 14 15  1  0
 15 16  2  0
 16 17  1  0
 17 18  1  0
 17 19  2  0
 10 20  1  0
 20 21  1  0
 21 22  2  0
 22 23  1  0
 23 24  2  0
 24 25  1  0
 24 26  1  0
 26 27  2  0
 20 28  2  0
  7 29  1  0
 29 30  2  0
 30  4  1  0
 28  8  1  0
 19 13  1  0
 27 21  1  0
  5 31  1  0
  6 32  1  0
  9 33  1  0
 11 34  1  0
 11 35  1  0
 12 36  1  0
 14 37  1  0
 15 38  1  0
 16 39  1  0
 19 40  1  0
 22 41  1  0
 23 42  1  0
 26 43  1  0
 27 44  1  0
 29 45  1  0
 30 46  1  0
M  CHG  1   3  -1
M  END
>  <meeko>  (19) 
{"is_sidechain": [false], "free_energy": -7.037, "intermolecular_energy": -9.023, "internal_energy": -2.192}

> <PREPARED_BY>
siam chowdhury
Computational and Medicinal Chemistry
[Dr. Alam's Research Team] www.alamresearch.org
Arkansas State University

$$$$
5sa23_out
     RDKit          3D

 46 49  0  0  0  0  0  0  0  0999 V2000
   10.3530   22.8330   42.7330 O   0  0  0  0  0  0  0  0  0  0  0  0
   10.3920   21.8260   42.0430 C   0  0  0  0  0  0  0  0  0  0  0  0
    9.7560   20.6840   42.3790 O   0  0  0  0  0  0  0  0  0  0  0  0
   11.1700   21.7450   40.7800 C   0  0  0  0  0  0  0  0  0  0  0  0
   11.0850   22.8150   39.8800 C   0  0  0  0  0  0  0  0  0  0  0  0
   11.7810   22.7750   38.6650 C   0  0  0  0  0  0  0  0  0  0  0  0
   12.5600   21.6560   38.3310 C   0  0  0  0  0  0  0  0  0  0  0  0
   13.2590   21.6250   37.0880 N   0  0  0  0  0  0  0  0  0  0  0  0
   13.9440   20.5690   36.5400 C   0  0  0  0  0  0  0  0  0  0  0  0
   14.4850   20.9990   35.3450 C   0  0  0  0  0  0  0  0  0  0  0  0
   15.3000   20.1740   34.3960 C   0  0  0  0  0  0  0  0  0  0  0  0
   14.5410   19.6650   33.2500 N   0  0  0  0  0  0  0  0  0  0  0  0
   14.2660   20.5210   32.1780 C   0  0  0  0  0  0  0  0  0  0  0  0
   12.9280   20.8450   31.8960 C   0  0  0  0  0  0  0  0  0  0  0  0
   12.5910   21.7150   30.8540 C   0  0  0  0  0  0  0  0  0  0  0  0
   13.5950   22.3040   30.0950 C   0  0  0  0  0  0  0  0  0  0  0  0
   14.9220   22.0160   30.3900 C   0  0  0  0  0  0  0  0  0  0  0  0
   15.8930   22.5970   29.6720 F   0  0  0  0  0  0  0  0  0  0  0  0
   15.2630   21.1430   31.4220 C   0  0  0  0  0  0  0  0  0  0  0  0
   14.1060   22.3740   35.2530 C   0  0  0  0  0  0  0  0  0  0  0  0
   14.4670   23.3690   34.2300 C   0  0  0  0  0  0  0  0  0  0  0  0
   13.4800   24.0810   33.5290 C   0  0  0  0  0  0  0  0  0  0  0  0
   13.8140   25.0330   32.5640 C   0  0  0  0  0  0  0  0  0  0  0  0
   15.1480   25.2580   32.2680 C   0  0  0  0  0  0  0  0  0  0  0  0
   15.4700   26.1590   31.3310 F   0  0  0  0  0  0  0  0  0  0  0  0
   16.1490   24.5500   32.9220 C   0  0  0  0  0  0  0  0  0  0  0  0
   15.8110   23.6100   33.9020 C   0  0  0  0  0  0  0  0  0  0  0  0
   13.3200   22.7160   36.2880 N   0  0  0  0  0  0  0  0  0  0  0  0
   12.6300   20.5790   39.2300 C   0  0  0  0  0  0  0  0  0  0  0  0
   11.9340   20.6220   40.4460 C   0  0  0  0  0  0  0  0  0  0  0  0
   10.4684   23.6913   40.1287 H   0  0  0  0  0  0  0  0  0  0  0  0
   11.7168   23.6246   37.9692 H   0  0  0  0  0  0  0  0  0  0  0  0
   14.0436   19.5632   36.9741 H   0  0  0  0  0  0  0  0  0  0  0  0
   16.1247   20.7954   34.0169 H   0  0  0  0  0  0  0  0  0  0  0  0
   15.6557   19.2980   34.9583 H   0  0  0  0  0  0  0  0  0  0  0  0
   14.2270   18.7320   33.2360 H   0  0  0  0  0  0  0  0  0  0  0  0
   12.1276   20.4044   32.5086 H   0  0  0  0  0  0  0  0  0  0  0  0
   11.5349   21.9322   30.6361 H   0  0  0  0  0  0  0  0  0  0  0  0
   13.3427   22.9888   29.2720 H   0  0  0  0  0  0  0  0  0  0  0  0
   16.3220   20.9429   31.6422 H   0  0  0  0  0  0  0  0  0  0  0  0
   12.4196   23.8841   33.7452 H   0  0  0  0  0  0  0  0  0  0  0  0
   13.0262   25.5982   32.0445 H   0  0  0  0  0  0  0  0  0  0  0  0
   17.2048   24.7281   32.6699 H   0  0  0  0  0  0  0  0  0  0  0  0
   16.6061   23.0543   34.4206 H   0  0  0  0  0  0  0  0  0  0  0  0
   13.2352   19.6957   38.9780 H   0  0  0  0  0  0  0  0  0  0  0  0
   11.9888   19.7700   41.1396 H   0  0  0  0  0  0  0  0  0  0  0  0
  1  2  2  0
  2  3  1  0
  2  4  1  0
  4  5  2  0
  5  6  1  0
  6  7  2  0
  7  8  1  0
  8  9  1  0
  9 10  2  0
 10 11  1  0
 11 12  1  0
 12 13  1  0
 13 14  2  0
 14 15  1  0
 15 16  2  0
 16 17  1  0
 17 18  1  0
 17 19  2  0
 10 20  1  0
 20 21  1  0
 21 22  2  0
 22 23  1  0
 23 24  2  0
 24 25  1  0
 24 26  1  0
 26 27  2  0
 20 28  2  0
  7 29  1  0
 29 30  2  0
 30  4  1  0
 28  8  1  0
 19 13  1  0
 27 21  1  0
  5 31  1  0
  6 32  1  0
  9 33  1  0
 11 34  1  0
 11 35  1  0
 12 36  1  0
 14 37  1  0
 15 38  1  0
 16 39  1  0
 19 40  1  0
 22 41  1  0
 23 42  1  0
 26 43  1  0
 27 44  1  0
 29 45  1  0
 30 46  1  0
M  CHG  1   3  -1
M  END
>  <meeko>  (20) 
{"is_sidechain": [false], "free_energy": -7.036, "intermolecular_energy": -8.886, "internal_energy": -2.327}

> <PREPARED_BY>
siam chowdhury
Computational and Medicinal Chemistry
[Dr. Alam's Research Team] www.alamresearch.org
Arkansas State University

$$$$
