# siam chowdhury
# Computational and Medicinal Chemistry
# [Dr. Alam's Research Team] www.alamresearch.org
# Arkansas State University
# 22sa23 all docked poses (7L00 FabK)
@<TRIPOS>MOLECULE
22sa23_out
 49 52 0 0 0
SMALL
GASTEIGER

@<TRIPOS>ATOM
      1 O           4.4900   14.9460   31.0090 O.co2   1  UNL1       -0.5446
      2 C           5.3590   14.0910   31.0370 C.2     1  UNL1        0.0717
      3 O           5.2030   12.8640   30.5020 O.co2   1  UNL1       -0.5446
      4 C           6.7000   14.3330   31.6350 C.ar    1  UNL1       -0.0026
      5 C           6.9120   14.4400   33.0150 C.ar    1  UNL1       -0.0509
      6 C           8.1890   14.7500   33.5080 C.ar    1  UNL1       -0.0357
      7 C           9.2520   14.9840   32.6230 C.ar    1  UNL1        0.0654
      8 N          10.5150   15.4230   33.1230 N.ar    1  UNL1       -0.2390
      9 C          11.3120   14.7650   34.0240 C.ar    1  UNL1        0.0365
     10 C          12.5020   15.4540   34.1010 C.ar    1  UNL1        0.0153
     11 C          13.7110   15.0230   34.8620 C.3     1  UNL1        0.0379
     12 N          13.5350   15.0480   36.3110 N.pl3   1  UNL1       -0.3396
     13 C          14.2880   15.9190   37.0940 C.ar    1  UNL1        0.0281
     14 C          15.6080   15.6700   37.4820 C.ar    1  UNL1       -0.0381
     15 C          16.3420   16.6230   38.1930 C.ar    1  UNL1       -0.0241
     16 C          15.7690   17.8500   38.5040 C.ar    1  UNL1        0.1351
     17 F          16.5000   18.7390   39.1850 F       1  UNL1       -0.2049
     18 C          14.4740   18.1520   38.1040 C.ar    1  UNL1        0.0916
     19 C          13.8480   19.4760   38.4130 C.3     1  UNL1        0.4201
     20 F          13.7640   19.7870   39.7330 F       1  UNL1       -0.1658
     21 F          14.5200   20.5100   37.8310 F       1  UNL1       -0.1658
     22 F          12.5730   19.5580   37.9340 F       1  UNL1       -0.1658
     23 C          13.7510   17.1830   37.3840 C.ar    1  UNL1       -0.0264
     24 C          12.3030   16.6150   33.2950 C.ar    1  UNL1        0.0978
     25 C          13.2190   17.7490   33.0840 C.ar    1  UNL1        0.0026
     26 C          12.8950   18.7880   32.1940 C.ar    1  UNL1       -0.0498
     27 C          13.7530   19.8760   32.0100 C.ar    1  UNL1       -0.0258
     28 C          14.9570   19.9180   32.6980 C.ar    1  UNL1        0.1234
     29 F          15.7840   20.9560   32.5150 F       1  UNL1       -0.2055
     30 C          15.3140   18.8960   33.5650 C.ar    1  UNL1       -0.0258
     31 C          14.4490   17.8130   33.7600 C.ar    1  UNL1       -0.0498
     32 N          11.1090   16.5570   32.6760 N.ar    1  UNL1       -0.1661
     33 C           9.0380   14.8470   31.2440 C.ar    1  UNL1       -0.0357
     34 C           7.7690   14.5260   30.7550 C.ar    1  UNL1       -0.0509
     35 H           6.0770   14.2810   33.7132 H       1  UNL1        0.0625
     36 H           8.3571   14.8098   34.5934 H       1  UNL1        0.0639
     37 H          11.0493   13.8545   34.5825 H       1  UNL1        0.0834
     38 H          13.9622   13.9953   34.5608 H       1  UNL1        0.0512
     39 H          14.5114   15.7390   34.6241 H       1  UNL1        0.0512
     40 H          12.8820   14.4470   36.7360 H       1  UNL1        0.1464
     41 H          16.0760   14.7087   37.2234 H       1  UNL1        0.0637
     42 H          17.3730   16.4019   38.5064 H       1  UNL1        0.0647
     43 H          12.7348   17.4232   37.0382 H       1  UNL1        0.0642
     44 H          11.9500   18.7439   31.6328 H       1  UNL1        0.0625
     45 H          13.4761   20.6916   31.3258 H       1  UNL1        0.0646
     46 H          16.2752   18.9365   34.0984 H       1  UNL1        0.0646
     47 H          14.7349   17.0045   34.4489 H       1  UNL1        0.0625
     48 H           9.8735   14.9930   30.5435 H       1  UNL1        0.0639
     49 H           7.6102   14.4246   29.6713 H       1  UNL1        0.0625
@<TRIPOS>UNITY_ATOM_ATTR
3 1
charge -1
@<TRIPOS>BOND
     1     1     2   ar
     2     2     3   ar
     3     2     4    1
     4     4     5   ar
     5     5     6   ar
     6     6     7   ar
     7     7     8    1
     8     8     9   ar
     9     9    10   ar
    10    10    11    1
    11    11    12    1
    12    12    13    1
    13    13    14   ar
    14    14    15   ar
    15    15    16   ar
    16    16    17    1
    17    16    18   ar
    18    18    19    1
    19    19    20    1
    20    19    21    1
    21    19    22    1
    22    18    23   ar
    23    10    24   ar
    24    24    25    1
    25    25    26   ar
    26    26    27   ar
    27    27    28   ar
    28    28    29    1
    29    28    30   ar
    30    30    31   ar
    31    24    32   ar
    32     7    33   ar
    33    33    34   ar
    34    34     4   ar
    35    32     8   ar
    36    23    13   ar
    37    31    25   ar
    38     5    35    1
    39     6    36    1
    40     9    37    1
    41    11    38    1
    42    11    39    1
    43    12    40    1
    44    14    41    1
    45    15    42    1
    46    23    43    1
    47    26    44    1
    48    27    45    1
    49    30    46    1
    50    31    47    1
    51    33    48    1
    52    34    49    1
@<TRIPOS>MOLECULE
22sa23_out
 49 52 0 0 0
SMALL
GASTEIGER

@<TRIPOS>ATOM
      1 O          15.4080   18.5140   33.2110 O.co2   1  UNL1       -0.5446
      2 C          14.3630   19.0520   33.5350 C.2     1  UNL1        0.0717
      3 O          14.1160   19.4890   34.7860 O.co2   1  UNL1       -0.5446
      4 C          13.2670   19.3190   32.5660 C.ar    1  UNL1       -0.0026
      5 C          12.9920   20.5940   32.0560 C.ar    1  UNL1       -0.0509
      6 C          11.8910   20.7910   31.2080 C.ar    1  UNL1       -0.0357
      7 C          11.0420   19.7190   30.8900 C.ar    1  UNL1        0.0654
      8 N           9.8540   19.9490   30.1340 N.ar    1  UNL1       -0.2390
      9 C           8.5790   19.5820   30.4820 C.ar    1  UNL1        0.0365
     10 C           7.7240   20.1370   29.5570 C.ar    1  UNL1        0.0153
     11 C           6.2330   20.1050   29.6180 C.3     1  UNL1        0.0379
     12 N           5.6250   19.1690   28.6770 N.pl3   1  UNL1       -0.3396
     13 C           4.9250   18.0610   29.1470 C.ar    1  UNL1        0.0281
     14 C           3.5340   17.9350   29.0810 C.ar    1  UNL1       -0.0381
     15 C           2.8960   16.7610   29.4880 C.ar    1  UNL1       -0.0241
     16 C           3.6470   15.6860   29.9450 C.ar    1  UNL1        0.1351
     17 F           3.0050   14.5760   30.3260 F       1  UNL1       -0.2049
     18 C           5.0340   15.7540   29.9900 C.ar    1  UNL1        0.0916
     19 C           5.8610   14.5990   30.4610 C.3     1  UNL1        0.4201
     20 F           5.5620   14.1370   31.7040 F       1  UNL1       -0.1658
     21 F           5.7570   13.5230   29.6310 F       1  UNL1       -0.1658
     22 F           7.1900   14.9060   30.4920 F       1  UNL1       -0.1658
     23 C           5.6600   16.9430   29.5710 C.ar    1  UNL1       -0.0264
     24 C           8.5790   20.7380   28.5850 C.ar    1  UNL1        0.0978
     25 C           8.2060   21.4050   27.3260 C.ar    1  UNL1        0.0026
     26 C           8.1440   22.8060   27.2360 C.ar    1  UNL1       -0.0498
     27 C           7.8120   23.4400   26.0360 C.ar    1  UNL1       -0.0258
     28 C           7.5130   22.6730   24.9200 C.ar    1  UNL1        0.1234
     29 F           7.1860   23.2790   23.7710 F       1  UNL1       -0.2055
     30 C           7.5430   21.2870   24.9830 C.ar    1  UNL1       -0.0258
     31 C           7.8890   20.6520   26.1820 C.ar    1  UNL1       -0.0498
     32 N           9.8650   20.6510   28.9740 N.ar    1  UNL1       -0.1661
     33 C          11.3400   18.4400   31.3820 C.ar    1  UNL1       -0.0357
     34 C          12.4440   18.2440   32.2160 C.ar    1  UNL1       -0.0509
     35 H          13.6400   21.4426   32.3205 H       1  UNL1        0.0625
     36 H          11.6925   21.7893   30.7909 H       1  UNL1        0.0639
     37 H           8.2925   18.9589   31.3420 H       1  UNL1        0.0834
     38 H           5.9336   19.8166   30.6364 H       1  UNL1        0.0512
     39 H           5.8794   21.1099   29.3441 H       1  UNL1        0.0512
     40 H           5.7100   19.3220   27.7090 H       1  UNL1        0.1464
     41 H           2.9322   18.7743   28.7023 H       1  UNL1        0.0637
     42 H           1.7992   16.6880   29.4466 H       1  UNL1        0.0647
     43 H           6.7586   16.9977   29.5760 H       1  UNL1        0.0642
     44 H           8.3608   23.4145   28.1264 H       1  UNL1        0.0625
     45 H           7.7880   24.5382   25.9770 H       1  UNL1        0.0646
     46 H           7.2957   20.6890   24.0935 H       1  UNL1        0.0646
     47 H           7.9130   19.5533   26.2292 H       1  UNL1        0.0625
     48 H          10.7014   17.5866   31.1100 H       1  UNL1        0.0639
     49 H          12.6671   17.2375   32.5997 H       1  UNL1        0.0625
@<TRIPOS>UNITY_ATOM_ATTR
3 1
charge -1
@<TRIPOS>BOND
     1     1     2   ar
     2     2     3   ar
     3     2     4    1
     4     4     5   ar
     5     5     6   ar
     6     6     7   ar
     7     7     8    1
     8     8     9   ar
     9     9    10   ar
    10    10    11    1
    11    11    12    1
    12    12    13    1
    13    13    14   ar
    14    14    15   ar
    15    15    16   ar
    16    16    17    1
    17    16    18   ar
    18    18    19    1
    19    19    20    1
    20    19    21    1
    21    19    22    1
    22    18    23   ar
    23    10    24   ar
    24    24    25    1
    25    25    26   ar
    26    26    27   ar
    27    27    28   ar
    28    28    29    1
    29    28    30   ar
    30    30    31   ar
    31    24    32   ar
    32     7    33   ar
    33    33    34   ar
    34    34     4   ar
    35    32     8   ar
    36    23    13   ar
    37    31    25   ar
    38     5    35    1
    39     6    36    1
    40     9    37    1
    41    11    38    1
    42    11    39    1
    43    12    40    1
    44    14    41    1
    45    15    42    1
    46    23    43    1
    47    26    44    1
    48    27    45    1
    49    30    46    1
    50    31    47    1
    51    33    48    1
    52    34    49    1
@<TRIPOS>MOLECULE
22sa23_out
 49 52 0 0 0
SMALL
GASTEIGER

@<TRIPOS>ATOM
      1 O          15.4730   18.3220   32.9190 O.co2   1  UNL1       -0.5446
      2 C          14.4500   18.8420   33.3280 C.2     1  UNL1        0.0717
      3 O          14.2640   19.1890   34.6170 O.co2   1  UNL1       -0.5446
      4 C          13.3120   19.1840   32.4330 C.ar    1  UNL1       -0.0026
      5 C          13.1000   20.4720   31.9260 C.ar    1  UNL1       -0.0509
      6 C          11.9610   20.7450   31.1530 C.ar    1  UNL1       -0.0357
      7 C          11.0140   19.7390   30.9080 C.ar    1  UNL1        0.0654
      8 N           9.7970   20.0520   30.2310 N.ar    1  UNL1       -0.2390
      9 C           8.5260   19.9230   30.7310 C.ar    1  UNL1        0.0365
     10 C           7.6650   20.4870   29.8170 C.ar    1  UNL1        0.0153
     11 C           6.1980   20.6840   30.0080 C.3     1  UNL1        0.0379
     12 N           5.5040   19.5000   30.5040 N.pl3   1  UNL1       -0.3396
     13 C           4.9880   18.5650   29.6110 C.ar    1  UNL1        0.0281
     14 C           5.4900   18.3650   28.3210 C.ar    1  UNL1       -0.0381
     15 C           4.9870   17.3500   27.5020 C.ar    1  UNL1       -0.0241
     16 C           3.9910   16.5060   27.9740 C.ar    1  UNL1        0.1351
     17 F           3.5330   15.5450   27.1640 F       1  UNL1       -0.2049
     18 C           3.4910   16.6460   29.2630 C.ar    1  UNL1        0.0916
     19 C           2.4310   15.7340   29.7960 C.3     1  UNL1        0.4201
     20 F           1.3900   15.4970   28.9560 F       1  UNL1       -0.1658
     21 F           2.9280   14.5070   30.1240 F       1  UNL1       -0.1658
     22 F           1.8760   16.2180   30.9440 F       1  UNL1       -0.1658
     23 C           4.0120   17.6700   30.0760 C.ar    1  UNL1       -0.0264
     24 C           8.4900   20.8350   28.7060 C.ar    1  UNL1        0.0978
     25 C           8.0850   21.3980   27.4070 C.ar    1  UNL1        0.0026
     26 C           7.7320   20.5630   26.3320 C.ar    1  UNL1       -0.0498
     27 C           7.3250   21.0960   25.1050 C.ar    1  UNL1       -0.0258
     28 C           7.2930   22.4720   24.9380 C.ar    1  UNL1        0.1234
     29 F           6.9110   22.9840   23.7600 F       1  UNL1       -0.2055
     30 C           7.6570   23.3220   25.9730 C.ar    1  UNL1       -0.0258
     31 C           8.0520   22.7880   27.2050 C.ar    1  UNL1       -0.0498
     32 N           9.7850   20.6040   28.9930 N.ar    1  UNL1       -0.1661
     33 C          11.2480   18.4450   31.3950 C.ar    1  UNL1       -0.0357
     34 C          12.3880   18.1710   32.1550 C.ar    1  UNL1       -0.0509
     35 H          13.8272   21.2708   32.1339 H       1  UNL1        0.0625
     36 H          11.8099   21.7522   30.7373 H       1  UNL1        0.0639
     37 H           8.2464   19.4550   31.6864 H       1  UNL1        0.0834
     38 H           6.0489   21.5009   30.7294 H       1  UNL1        0.0512
     39 H           5.7742   20.9127   29.0190 H       1  UNL1        0.0512
     40 H           5.3990   19.3620   31.4730 H       1  UNL1        0.1464
     41 H           6.2928   19.0163   27.9452 H       1  UNL1        0.0637
     42 H           5.3806   17.2200   26.4831 H       1  UNL1        0.0647
     43 H           3.6430   17.7719   31.1072 H       1  UNL1        0.0642
     44 H           7.7768   19.4712   26.4586 H       1  UNL1        0.0625
     45 H           7.0329   20.4298   24.2799 H       1  UNL1        0.0646
     46 H           7.6351   24.4119   25.8255 H       1  UNL1        0.0646
     47 H           8.3397   23.4638   28.0239 H       1  UNL1        0.0625
     48 H          10.5297   17.6408   31.1774 H       1  UNL1        0.0639
     49 H          12.5598   17.1537   32.5366 H       1  UNL1        0.0625
@<TRIPOS>UNITY_ATOM_ATTR
3 1
charge -1
@<TRIPOS>BOND
     1     1     2   ar
     2     2     3   ar
     3     2     4    1
     4     4     5   ar
     5     5     6   ar
     6     6     7   ar
     7     7     8    1
     8     8     9   ar
     9     9    10   ar
    10    10    11    1
    11    11    12    1
    12    12    13    1
    13    13    14   ar
    14    14    15   ar
    15    15    16   ar
    16    16    17    1
    17    16    18   ar
    18    18    19    1
    19    19    20    1
    20    19    21    1
    21    19    22    1
    22    18    23   ar
    23    10    24   ar
    24    24    25    1
    25    25    26   ar
    26    26    27   ar
    27    27    28   ar
    28    28    29    1
    29    28    30   ar
    30    30    31   ar
    31    24    32   ar
    32     7    33   ar
    33    33    34   ar
    34    34     4   ar
    35    32     8   ar
    36    23    13   ar
    37    31    25   ar
    38     5    35    1
    39     6    36    1
    40     9    37    1
    41    11    38    1
    42    11    39    1
    43    12    40    1
    44    14    41    1
    45    15    42    1
    46    23    43    1
    47    26    44    1
    48    27    45    1
    49    30    46    1
    50    31    47    1
    51    33    48    1
    52    34    49    1
@<TRIPOS>MOLECULE
22sa23_out
 49 52 0 0 0
SMALL
GASTEIGER

@<TRIPOS>ATOM
      1 O          15.4790   20.1080   33.8370 O.co2   1  UNL1       -0.5446
      2 C          14.8650   19.1900   33.3210 C.2     1  UNL1        0.0717
      3 O          15.2680   17.9060   33.3840 O.co2   1  UNL1       -0.5446
      4 C          13.5800   19.3940   32.6000 C.ar    1  UNL1       -0.0026
      5 C          12.7130   18.3430   32.2750 C.ar    1  UNL1       -0.0509
      6 C          11.5550   18.5930   31.5210 C.ar    1  UNL1       -0.0357
      7 C          11.2750   19.8900   31.0640 C.ar    1  UNL1        0.0654
      8 N          10.1680   20.1170   30.1920 N.ar    1  UNL1       -0.2390
      9 C          10.1540   20.9210   29.0800 C.ar    1  UNL1        0.0365
     10 C           8.9480   20.7250   28.4460 C.ar    1  UNL1        0.0153
     11 C           8.5540   21.2980   27.1260 C.3     1  UNL1        0.0379
     12 N           7.5630   22.3660   27.2200 N.pl3   1  UNL1       -0.3396
     13 C           6.2710   22.1670   26.7400 C.ar    1  UNL1        0.0281
     14 C           5.9790   21.8210   25.4170 C.ar    1  UNL1       -0.0381
     15 C           4.6680   21.5470   25.0170 C.ar    1  UNL1       -0.0241
     16 C           3.6350   21.5930   25.9440 C.ar    1  UNL1        0.1351
     17 F           2.3930   21.3260   25.5260 F       1  UNL1       -0.2049
     18 C           3.8870   21.8950   27.2750 C.ar    1  UNL1        0.0916
     19 C           2.7890   21.9310   28.2930 C.3     1  UNL1        0.4201
     20 F           1.9350   22.9830   28.1910 F       1  UNL1       -0.1658
     21 F           2.0090   20.8140   28.2430 F       1  UNL1       -0.1658
     22 F           3.2780   21.9750   29.5660 F       1  UNL1       -0.1658
     23 C           5.2130   22.1630   27.6630 C.ar    1  UNL1       -0.0264
     24 C           8.2160   19.8620   29.3160 C.ar    1  UNL1        0.0978
     25 C           6.8280   19.3890   29.1780 C.ar    1  UNL1        0.0026
     26 C           6.3760   18.7990   27.9840 C.ar    1  UNL1       -0.0498
     27 C           5.0650   18.3300   27.8600 C.ar    1  UNL1       -0.0258
     28 C           4.1880   18.4710   28.9250 C.ar    1  UNL1        0.1234
     29 F           2.9280   18.0290   28.8040 F       1  UNL1       -0.2055
     30 C           4.5970   19.0690   30.1080 C.ar    1  UNL1       -0.0258
     31 C           5.9140   19.5280   30.2370 C.ar    1  UNL1       -0.0498
     32 N           8.9870   19.4700   30.3470 N.ar    1  UNL1       -0.1661
     33 C          12.1340   20.9420   31.4170 C.ar    1  UNL1       -0.0357
     34 C          13.2790   20.6930   32.1780 C.ar    1  UNL1       -0.0509
     35 H          12.9395   17.3203   32.6109 H       1  UNL1        0.0625
     36 H          10.8647   17.7690   31.2877 H       1  UNL1        0.0639
     37 H          10.9583   21.5974   28.7551 H       1  UNL1        0.0834
     38 H           9.4546   21.7021   26.6405 H       1  UNL1        0.0512
     39 H           8.0937   20.4835   26.5474 H       1  UNL1        0.0512
     40 H           7.8080   23.2290   27.6230 H       1  UNL1        0.1464
     41 H           6.7934   21.7636   24.6798 H       1  UNL1        0.0637
     42 H           4.4545   21.2949   23.9678 H       1  UNL1        0.0647
     43 H           5.4269   22.3757   28.7208 H       1  UNL1        0.0642
     44 H           7.0663   18.7050   27.1327 H       1  UNL1        0.0625
     45 H           4.7320   17.8534   26.9262 H       1  UNL1        0.0646
     46 H           3.8891   19.1824   30.9423 H       1  UNL1        0.0646
     47 H           6.2362   20.0018   31.1760 H       1  UNL1        0.0625
     48 H          11.9047   21.9679   31.0929 H       1  UNL1        0.0639
     49 H          13.9479   21.5238   32.4469 H       1  UNL1        0.0625
@<TRIPOS>UNITY_ATOM_ATTR
3 1
charge -1
@<TRIPOS>BOND
     1     1     2   ar
     2     2     3   ar
     3     2     4    1
     4     4     5   ar
     5     5     6   ar
     6     6     7   ar
     7     7     8    1
     8     8     9   ar
     9     9    10   ar
    10    10    11    1
    11    11    12    1
    12    12    13    1
    13    13    14   ar
    14    14    15   ar
    15    15    16   ar
    16    16    17    1
    17    16    18   ar
    18    18    19    1
    19    19    20    1
    20    19    21    1
    21    19    22    1
    22    18    23   ar
    23    10    24   ar
    24    24    25    1
    25    25    26   ar
    26    26    27   ar
    27    27    28   ar
    28    28    29    1
    29    28    30   ar
    30    30    31   ar
    31    24    32   ar
    32     7    33   ar
    33    33    34   ar
    34    34     4   ar
    35    32     8   ar
    36    23    13   ar
    37    31    25   ar
    38     5    35    1
    39     6    36    1
    40     9    37    1
    41    11    38    1
    42    11    39    1
    43    12    40    1
    44    14    41    1
    45    15    42    1
    46    23    43    1
    47    26    44    1
    48    27    45    1
    49    30    46    1
    50    31    47    1
    51    33    48    1
    52    34    49    1
@<TRIPOS>MOLECULE
22sa23_out
 49 52 0 0 0
SMALL
GASTEIGER

@<TRIPOS>ATOM
      1 O          15.6640   18.5890   33.4120 O.co2   1  UNL1       -0.5446
      2 C          14.5660   19.0130   33.7290 C.2     1  UNL1        0.0717
      3 O          14.2190   19.2810   35.0030 O.co2   1  UNL1       -0.5446
      4 C          13.5070   19.3170   32.7290 C.ar    1  UNL1       -0.0026
      5 C          13.2830   20.6030   32.2220 C.ar    1  UNL1       -0.0509
      6 C          12.2140   20.8360   31.3430 C.ar    1  UNL1       -0.0357
      7 C          11.3460   19.7920   30.9910 C.ar    1  UNL1        0.0654
      8 N          10.1880   20.0600   30.2010 N.ar    1  UNL1       -0.2390
      9 C          10.0840   20.9760   29.1860 C.ar    1  UNL1        0.0365
     10 C           8.8570   20.7940   28.5900 C.ar    1  UNL1        0.0153
     11 C           8.3730   21.4860   27.3600 C.3     1  UNL1        0.0379
     12 N           7.5900   22.6880   27.6300 N.pl3   1  UNL1       -0.3396
     13 C           6.4240   22.6080   28.3880 C.ar    1  UNL1        0.0281
     14 C           6.3260   23.0490   29.7110 C.ar    1  UNL1       -0.0381
     15 C           5.1050   23.0230   30.3910 C.ar    1  UNL1       -0.0241
     16 C           3.9600   22.5780   29.7440 C.ar    1  UNL1        0.1351
     17 F           2.8080   22.5670   30.4240 F       1  UNL1       -0.2049
     18 C           4.0060   22.1670   28.4180 C.ar    1  UNL1        0.0916
     19 C           2.7780   21.7030   27.6980 C.3     1  UNL1        0.4201
     20 F           2.9420   21.4460   26.3740 F       1  UNL1       -0.1658
     21 F           2.2700   20.5590   28.2380 F       1  UNL1       -0.1658
     22 F           1.7690   22.6190   27.7740 F       1  UNL1       -0.1658
     23 C           5.2420   22.2050   27.7470 C.ar    1  UNL1       -0.0264
     24 C           8.2050   19.8100   29.3930 C.ar    1  UNL1        0.0978
     25 C           6.8320   19.2910   29.2690 C.ar    1  UNL1        0.0026
     26 C           5.9190   19.3900   30.3330 C.ar    1  UNL1       -0.0498
     27 C           4.6090   18.9190   30.2070 C.ar    1  UNL1       -0.0258
     28 C           4.2110   18.3200   29.0220 C.ar    1  UNL1        0.1234
     29 F           2.9580   17.8590   28.9040 F       1  UNL1       -0.2055
     30 C           5.0970   18.1870   27.9620 C.ar    1  UNL1       -0.0258
     31 C           6.4050   18.6710   28.0830 C.ar    1  UNL1       -0.0498
     32 N           9.0430   19.3460   30.3390 N.ar    1  UNL1       -0.1661
     33 C          11.5930   18.5010   31.4820 C.ar    1  UNL1       -0.0357
     34 C          12.6650   18.2680   32.3470 C.ar    1  UNL1       -0.0509
     35 H          13.9456   21.4314   32.5130 H       1  UNL1        0.0625
     36 H          12.0561   21.8424   30.9280 H       1  UNL1        0.0639
     37 H          10.8423   21.7199   28.9005 H       1  UNL1        0.0834
     38 H           9.2468   21.7699   26.7551 H       1  UNL1        0.0512
     39 H           7.7094   20.7821   26.8364 H       1  UNL1        0.0512
     40 H           7.8860   23.5570   27.2760 H       1  UNL1        0.1464
     41 H           7.2240   23.4224   30.2250 H       1  UNL1        0.0637
     42 H           5.0513   23.3550   31.4383 H       1  UNL1        0.0647
     43 H           5.2834   21.9100   26.6881 H       1  UNL1        0.0642
     44 H           6.2408   19.8459   31.2810 H       1  UNL1        0.0625
     45 H           3.8997   19.0228   31.0414 H       1  UNL1        0.0646
     46 H           4.7723   17.7026   27.0293 H       1  UNL1        0.0646
     47 H           7.1052   18.5648   27.2413 H       1  UNL1        0.0625
     48 H          10.9392   17.6680   31.1843 H       1  UNL1        0.0639
     49 H          12.8478   17.2531   32.7299 H       1  UNL1        0.0625
@<TRIPOS>UNITY_ATOM_ATTR
3 1
charge -1
@<TRIPOS>BOND
     1     1     2   ar
     2     2     3   ar
     3     2     4    1
     4     4     5   ar
     5     5     6   ar
     6     6     7   ar
     7     7     8    1
     8     8     9   ar
     9     9    10   ar
    10    10    11    1
    11    11    12    1
    12    12    13    1
    13    13    14   ar
    14    14    15   ar
    15    15    16   ar
    16    16    17    1
    17    16    18   ar
    18    18    19    1
    19    19    20    1
    20    19    21    1
    21    19    22    1
    22    18    23   ar
    23    10    24   ar
    24    24    25    1
    25    25    26   ar
    26    26    27   ar
    27    27    28   ar
    28    28    29    1
    29    28    30   ar
    30    30    31   ar
    31    24    32   ar
    32     7    33   ar
    33    33    34   ar
    34    34     4   ar
    35    32     8   ar
    36    23    13   ar
    37    31    25   ar
    38     5    35    1
    39     6    36    1
    40     9    37    1
    41    11    38    1
    42    11    39    1
    43    12    40    1
    44    14    41    1
    45    15    42    1
    46    23    43    1
    47    26    44    1
    48    27    45    1
    49    30    46    1
    50    31    47    1
    51    33    48    1
    52    34    49    1
@<TRIPOS>MOLECULE
22sa23_out
 49 52 0 0 0
SMALL
GASTEIGER

@<TRIPOS>ATOM
      1 O          14.7890   19.9790   34.2630 O.co2   1  UNL1       -0.5446
      2 C          14.4470   19.1390   33.4490 C.2     1  UNL1        0.0717
      3 O          15.0320   17.9300   33.3460 O.co2   1  UNL1       -0.5446
      4 C          13.3150   19.3530   32.5070 C.ar    1  UNL1       -0.0026
      5 C          13.0030   20.6050   31.9620 C.ar    1  UNL1       -0.0509
      6 C          11.8720   20.7530   31.1440 C.ar    1  UNL1       -0.0357
      7 C          11.0310   19.6580   30.8930 C.ar    1  UNL1        0.0654
      8 N           9.8150   19.8420   30.1680 N.ar    1  UNL1       -0.2390
      9 C           8.5710   19.3880   30.5290 C.ar    1  UNL1        0.0365
     10 C           7.6650   19.9230   29.6410 C.ar    1  UNL1        0.0153
     11 C           6.1810   19.8000   29.7310 C.3     1  UNL1        0.0379
     12 N           5.6270   18.7320   28.9030 N.pl3   1  UNL1       -0.3396
     13 C           5.3670   18.9550   27.5540 C.ar    1  UNL1        0.0281
     14 C           5.6560   18.0320   26.5440 C.ar    1  UNL1       -0.0381
     15 C           5.2910   18.2770   25.2180 C.ar    1  UNL1       -0.0241
     16 C           4.6100   19.4410   24.8890 C.ar    1  UNL1        0.1351
     17 F           4.2750   19.6440   23.6100 F       1  UNL1       -0.2049
     18 C           4.2690   20.3670   25.8670 C.ar    1  UNL1        0.0916
     19 C           3.5170   21.6180   25.5340 C.3     1  UNL1        0.4201
     20 F           4.1210   22.4380   24.6340 F       1  UNL1       -0.1658
     21 F           2.2810   21.3530   25.0240 F       1  UNL1       -0.1658
     22 F           3.2960   22.3850   26.6410 F       1  UNL1       -0.1658
     23 C           4.6390   20.1020   27.1990 C.ar    1  UNL1       -0.0264
     24 C           8.4630   20.6050   28.6740 C.ar    1  UNL1        0.0978
     25 C           8.0230   21.2900   27.4460 C.ar    1  UNL1        0.0026
     26 C           7.3650   22.5310   27.5020 C.ar    1  UNL1       -0.0498
     27 C           6.9680   23.1920   26.3360 C.ar    1  UNL1       -0.0258
     28 C           7.2050   22.6020   25.1040 C.ar    1  UNL1        0.1234
     29 F           6.8160   23.2310   23.9860 F       1  UNL1       -0.2055
     30 C           7.8310   21.3670   25.0170 C.ar    1  UNL1       -0.0258
     31 C           8.2410   20.7110   26.1840 C.ar    1  UNL1       -0.0498
     32 N           9.7590   20.5810   29.0340 N.ar    1  UNL1       -0.1661
     33 C          11.3660   18.4030   31.4200 C.ar    1  UNL1       -0.0357
     34 C          12.4990   18.2530   32.2240 C.ar    1  UNL1       -0.0509
     35 H          13.6446   21.4727   32.1751 H       1  UNL1        0.0625
     36 H          11.6438   21.7321   30.6975 H       1  UNL1        0.0639
     37 H           8.3405   18.7201   31.3721 H       1  UNL1        0.0834
     38 H           5.9124   19.6012   30.7790 H       1  UNL1        0.0512
     39 H           5.7580   20.7453   29.3601 H       1  UNL1        0.0512
     40 H           5.4360   17.8530   29.3010 H       1  UNL1        0.1464
     41 H           6.1791   17.0982   26.7977 H       1  UNL1        0.0637
     42 H           5.5433   17.5474   24.4344 H       1  UNL1        0.0647
     43 H           4.3492   20.8147   27.9852 H       1  UNL1        0.0642
     44 H           7.1590   22.9899   28.4803 H       1  UNL1        0.0625
     45 H           6.4718   24.1719   26.3955 H       1  UNL1        0.0646
     46 H           8.0047   20.9046   24.0342 H       1  UNL1        0.0646
     47 H           8.7387   19.7327   26.1124 H       1  UNL1        0.0625
     48 H          10.7331   17.5308   31.1993 H       1  UNL1        0.0639
     49 H          12.7504   17.2647   32.6364 H       1  UNL1        0.0625
@<TRIPOS>UNITY_ATOM_ATTR
3 1
charge -1
@<TRIPOS>BOND
     1     1     2   ar
     2     2     3   ar
     3     2     4    1
     4     4     5   ar
     5     5     6   ar
     6     6     7   ar
     7     7     8    1
     8     8     9   ar
     9     9    10   ar
    10    10    11    1
    11    11    12    1
    12    12    13    1
    13    13    14   ar
    14    14    15   ar
    15    15    16   ar
    16    16    17    1
    17    16    18   ar
    18    18    19    1
    19    19    20    1
    20    19    21    1
    21    19    22    1
    22    18    23   ar
    23    10    24   ar
    24    24    25    1
    25    25    26   ar
    26    26    27   ar
    27    27    28   ar
    28    28    29    1
    29    28    30   ar
    30    30    31   ar
    31    24    32   ar
    32     7    33   ar
    33    33    34   ar
    34    34     4   ar
    35    32     8   ar
    36    23    13   ar
    37    31    25   ar
    38     5    35    1
    39     6    36    1
    40     9    37    1
    41    11    38    1
    42    11    39    1
    43    12    40    1
    44    14    41    1
    45    15    42    1
    46    23    43    1
    47    26    44    1
    48    27    45    1
    49    30    46    1
    50    31    47    1
    51    33    48    1
    52    34    49    1
@<TRIPOS>MOLECULE
22sa23_out
 49 52 0 0 0
SMALL
GASTEIGER

@<TRIPOS>ATOM
      1 O          15.6340   18.2590   32.7640 O.co2   1  UNL1       -0.5446
      2 C          15.1370   19.3700   32.7000 C.2     1  UNL1        0.0717
      3 O          15.7560   20.4810   33.1450 O.co2   1  UNL1       -0.5446
      4 C          13.8060   19.6170   32.0830 C.ar    1  UNL1       -0.0026
      5 C          13.3970   20.8780   31.6300 C.ar    1  UNL1       -0.0509
      6 C          12.0970   21.0590   31.1330 C.ar    1  UNL1       -0.0357
      7 C          11.1900   19.9880   31.1150 C.ar    1  UNL1        0.0654
      8 N           9.8330   20.2060   30.7300 N.ar    1  UNL1       -0.2390
      9 C           8.8880   20.9130   31.4290 C.ar    1  UNL1        0.0365
     10 C           7.7730   21.0140   30.6280 C.ar    1  UNL1        0.0153
     11 C           6.5490   21.8100   30.9330 C.3     1  UNL1        0.0379
     12 N           6.4140   23.0170   30.1240 N.pl3   1  UNL1       -0.3396
     13 C           5.6350   23.0030   28.9690 C.ar    1  UNL1        0.0281
     14 C           6.0540   23.5300   27.7440 C.ar    1  UNL1       -0.0381
     15 C           5.2630   23.4070   26.5980 C.ar    1  UNL1       -0.0241
     16 C           4.0520   22.7310   26.6610 C.ar    1  UNL1        0.1351
     17 F           3.3200   22.6310   25.5450 F       1  UNL1       -0.2049
     18 C           3.6160   22.1600   27.8490 C.ar    1  UNL1        0.0916
     19 C           2.3230   21.4110   27.9310 C.3     1  UNL1        0.4201
     20 F           1.6940   21.2040   26.7440 F       1  UNL1       -0.1658
     21 F           2.4790   20.1760   28.4880 F       1  UNL1       -0.1658
     22 F           1.4150   22.0520   28.7220 F       1  UNL1       -0.1658
     23 C           4.4280   22.2880   28.9920 C.ar    1  UNL1       -0.0264
     24 C           8.0770   20.2200   29.4800 C.ar    1  UNL1        0.0978
     25 C           7.2100   19.9020   28.3340 C.ar    1  UNL1        0.0026
     26 C           6.0640   19.1020   28.4900 C.ar    1  UNL1       -0.0498
     27 C           5.2270   18.8180   27.4060 C.ar    1  UNL1       -0.0258
     28 C           5.5480   19.3120   26.1510 C.ar    1  UNL1        0.1234
     29 F           4.7510   19.0320   25.1100 F       1  UNL1       -0.2055
     30 C           6.6840   20.0840   25.9610 C.ar    1  UNL1       -0.0258
     31 C           7.5150   20.3800   27.0480 C.ar    1  UNL1       -0.0498
     32 N           9.3460   19.7750   29.5410 N.ar    1  UNL1       -0.1661
     33 C          11.6160   18.7230   31.5440 C.ar    1  UNL1       -0.0357
     34 C          12.9150   18.5410   32.0270 C.ar    1  UNL1       -0.0509
     35 H          14.0955   21.7271   31.6639 H       1  UNL1        0.0625
     36 H          11.7875   22.0449   30.7558 H       1  UNL1        0.0639
     37 H           9.0005   21.3238   32.4432 H       1  UNL1        0.0834
     38 H           5.6690   21.1741   30.7565 H       1  UNL1        0.0512
     39 H           6.6310   22.1345   31.9809 H       1  UNL1        0.0512
     40 H           6.8740   23.8430   30.3950 H       1  UNL1        0.1464
     41 H           7.0214   24.0497   27.6808 H       1  UNL1        0.0637
     42 H           5.5998   23.8455   25.6470 H       1  UNL1        0.0647
     43 H           4.1066   21.8134   29.9309 H       1  UNL1        0.0642
     44 H           5.8217   18.6925   29.4818 H       1  UNL1        0.0625
     45 H           4.3225   18.2084   27.5479 H       1  UNL1        0.0646
     46 H           6.9317   20.4630   24.9585 H       1  UNL1        0.0646
     47 H           8.4155   20.9927   26.8941 H       1  UNL1        0.0625
     48 H          10.9241   17.8690   31.5002 H       1  UNL1        0.0639
     49 H          13.2382   17.5454   32.3650 H       1  UNL1        0.0625
@<TRIPOS>UNITY_ATOM_ATTR
3 1
charge -1
@<TRIPOS>BOND
     1     1     2   ar
     2     2     3   ar
     3     2     4    1
     4     4     5   ar
     5     5     6   ar
     6     6     7   ar
     7     7     8    1
     8     8     9   ar
     9     9    10   ar
    10    10    11    1
    11    11    12    1
    12    12    13    1
    13    13    14   ar
    14    14    15   ar
    15    15    16   ar
    16    16    17    1
    17    16    18   ar
    18    18    19    1
    19    19    20    1
    20    19    21    1
    21    19    22    1
    22    18    23   ar
    23    10    24   ar
    24    24    25    1
    25    25    26   ar
    26    26    27   ar
    27    27    28   ar
    28    28    29    1
    29    28    30   ar
    30    30    31   ar
    31    24    32   ar
    32     7    33   ar
    33    33    34   ar
    34    34     4   ar
    35    32     8   ar
    36    23    13   ar
    37    31    25   ar
    38     5    35    1
    39     6    36    1
    40     9    37    1
    41    11    38    1
    42    11    39    1
    43    12    40    1
    44    14    41    1
    45    15    42    1
    46    23    43    1
    47    26    44    1
    48    27    45    1
    49    30    46    1
    50    31    47    1
    51    33    48    1
    52    34    49    1
@<TRIPOS>MOLECULE
22sa23_out
 49 52 0 0 0
SMALL
GASTEIGER

@<TRIPOS>ATOM
      1 O           5.6510   21.0530   27.5490 O.co2   1  UNL1       -0.5446
      2 C           6.5780   20.2700   27.4370 C.2     1  UNL1        0.0717
      3 O           6.6350   19.3270   26.4760 O.co2   1  UNL1       -0.5446
      4 C           7.7670   20.3040   28.3310 C.ar    1  UNL1       -0.0026
      5 C           8.9760   20.9130   27.9700 C.ar    1  UNL1       -0.0509
      6 C          10.0840   20.8380   28.8280 C.ar    1  UNL1       -0.0357
      7 C           9.9980   20.1290   30.0360 C.ar    1  UNL1        0.0654
      8 N          11.1610   19.9470   30.8430 N.ar    1  UNL1       -0.2390
      9 C          12.1380   20.8780   31.0910 C.ar    1  UNL1        0.0365
     10 C          12.9800   20.3470   32.0420 C.ar    1  UNL1        0.0153
     11 C          14.1090   21.0630   32.7050 C.3     1  UNL1        0.0379
     12 N          13.7220   22.3260   33.3250 N.pl3   1  UNL1       -0.3396
     13 C          13.3590   22.3640   34.6690 C.ar    1  UNL1        0.0281
     14 C          12.3950   23.2330   35.1890 C.ar    1  UNL1       -0.0381
     15 C          12.0100   23.1630   36.5310 C.ar    1  UNL1       -0.0241
     16 C          12.5700   22.2050   37.3640 C.ar    1  UNL1        0.1351
     17 F          12.1790   22.1650   38.6430 F       1  UNL1       -0.2049
     18 C          13.5040   21.2980   36.8790 C.ar    1  UNL1        0.0916
     19 C          14.1040   20.2440   37.7580 C.3     1  UNL1        0.4201
     20 F          14.8210   20.7080   38.8150 F       1  UNL1       -0.1658
     21 F          13.1580   19.4170   38.2850 F       1  UNL1       -0.1658
     22 F          14.9520   19.4300   37.0660 F       1  UNL1       -0.1658
     23 C          13.8760   21.3780   35.5240 C.ar    1  UNL1       -0.0264
     24 C          12.5130   19.0120   32.2370 C.ar    1  UNL1        0.0978
     25 C          13.0930   17.9550   33.0830 C.ar    1  UNL1        0.0026
     26 C          12.3910   16.7640   33.3400 C.ar    1  UNL1       -0.0498
     27 C          12.9510   15.7500   34.1240 C.ar    1  UNL1       -0.0258
     28 C          14.2080   15.9340   34.6800 C.ar    1  UNL1        0.1234
     29 F          14.7410   14.9670   35.4390 F       1  UNL1       -0.2055
     30 C          14.9150   17.1080   34.4630 C.ar    1  UNL1       -0.0258
     31 C          14.3600   18.1180   33.6670 C.ar    1  UNL1       -0.0498
     32 N          11.3840   18.8030   31.5350 N.ar    1  UNL1       -0.1661
     33 C           8.7760   19.5470   30.4030 C.ar    1  UNL1       -0.0357
     34 C           7.6690   19.6330   29.5540 C.ar    1  UNL1       -0.0509
     35 H           9.0568   21.4502   27.0135 H       1  UNL1        0.0625
     36 H          11.0245   21.3374   28.5523 H       1  UNL1        0.0639
     37 H          12.2313   21.8664   30.6173 H       1  UNL1        0.0834
     38 H          14.5257   20.4076   33.4839 H       1  UNL1        0.0512
     39 H          14.8416   21.3024   31.9202 H       1  UNL1        0.0512
     40 H          13.7170   23.1530   32.7920 H       1  UNL1        0.1464
     41 H          11.9322   23.9837   34.5316 H       1  UNL1        0.0637
     42 H          11.2633   23.8672   36.9265 H       1  UNL1        0.0647
     43 H          14.5930   20.6464   35.1232 H       1  UNL1        0.0642
     44 H          11.3846   16.6275   32.9174 H       1  UNL1        0.0625
     45 H          12.3990   14.8146   34.2980 H       1  UNL1        0.0646
     46 H          15.9085   17.2451   34.9148 H       1  UNL1        0.0646
     47 H          14.9220   19.0483   33.4975 H       1  UNL1        0.0625
     48 H           8.6882   19.0198   31.3645 H       1  UNL1        0.0639
     49 H           6.7157   19.1704   29.8494 H       1  UNL1        0.0625
@<TRIPOS>UNITY_ATOM_ATTR
3 1
charge -1
@<TRIPOS>BOND
     1     1     2   ar
     2     2     3   ar
     3     2     4    1
     4     4     5   ar
     5     5     6   ar
     6     6     7   ar
     7     7     8    1
     8     8     9   ar
     9     9    10   ar
    10    10    11    1
    11    11    12    1
    12    12    13    1
    13    13    14   ar
    14    14    15   ar
    15    15    16   ar
    16    16    17    1
    17    16    18   ar
    18    18    19    1
    19    19    20    1
    20    19    21    1
    21    19    22    1
    22    18    23   ar
    23    10    24   ar
    24    24    25    1
    25    25    26   ar
    26    26    27   ar
    27    27    28   ar
    28    28    29    1
    29    28    30   ar
    30    30    31   ar
    31    24    32   ar
    32     7    33   ar
    33    33    34   ar
    34    34     4   ar
    35    32     8   ar
    36    23    13   ar
    37    31    25   ar
    38     5    35    1
    39     6    36    1
    40     9    37    1
    41    11    38    1
    42    11    39    1
    43    12    40    1
    44    14    41    1
    45    15    42    1
    46    23    43    1
    47    26    44    1
    48    27    45    1
    49    30    46    1
    50    31    47    1
    51    33    48    1
    52    34    49    1
@<TRIPOS>MOLECULE
22sa23_out
 49 52 0 0 0
SMALL
GASTEIGER

@<TRIPOS>ATOM
      1 O           3.7790   15.9820   28.0820 O.co2   1  UNL1       -0.5446
      2 C           3.9370   15.6680   29.2490 C.2     1  UNL1        0.0717
      3 O           2.9240   15.2970   30.0560 O.co2   1  UNL1       -0.5446
      4 C           5.2780   15.6250   29.8910 C.ar    1  UNL1       -0.0026
      5 C           5.7980   14.4730   30.4940 C.ar    1  UNL1       -0.0509
      6 C           7.0360   14.5220   31.1550 C.ar    1  UNL1       -0.0357
      7 C           7.7450   15.7300   31.2410 C.ar    1  UNL1        0.0654
      8 N           8.9380   15.8050   32.0200 N.ar    1  UNL1       -0.2390
      9 C           9.3110   14.9530   33.0280 C.ar    1  UNL1        0.0365
     10 C          10.5950   15.2880   33.3960 C.ar    1  UNL1        0.0153
     11 C          11.4460   14.5410   34.3680 C.3     1  UNL1        0.0379
     12 N          11.4770   15.1350   35.7010 N.pl3   1  UNL1       -0.3396
     13 C          12.6950   15.3770   36.3320 C.ar    1  UNL1        0.0281
     14 C          13.8120   14.5450   36.2090 C.ar    1  UNL1       -0.0381
     15 C          15.0330   14.8870   36.7950 C.ar    1  UNL1       -0.0241
     16 C          15.1580   16.0800   37.4930 C.ar    1  UNL1        0.1351
     17 F          16.3420   16.3770   38.0410 F       1  UNL1       -0.2049
     18 C          14.0840   16.9540   37.6070 C.ar    1  UNL1        0.0916
     19 C          14.2050   18.2540   38.3390 C.3     1  UNL1        0.4201
     20 F          14.3690   18.1520   39.6840 F       1  UNL1       -0.1658
     21 F          15.2570   18.9970   37.8920 F       1  UNL1       -0.1658
     22 F          13.1040   19.0400   38.1610 F       1  UNL1       -0.1658
     23 C          12.8620   16.5960   37.0060 C.ar    1  UNL1       -0.0264
     24 C          10.8970   16.4580   32.6370 C.ar    1  UNL1        0.0978
     25 C          12.1080   17.2960   32.6910 C.ar    1  UNL1        0.0026
     26 C          13.1910   16.9550   33.5210 C.ar    1  UNL1       -0.0498
     27 C          14.3490   17.7370   33.5560 C.ar    1  UNL1       -0.0258
     28 C          14.4200   18.8830   32.7790 C.ar    1  UNL1        0.1234
     29 F          15.5270   19.6390   32.8190 F       1  UNL1       -0.2055
     30 C          13.3590   19.2590   31.9680 C.ar    1  UNL1       -0.0258
     31 C          12.2040   18.4680   31.9230 C.ar    1  UNL1       -0.0498
     32 N           9.8980   16.7310   31.7780 N.ar    1  UNL1       -0.1661
     33 C           7.2310   16.8730   30.6100 C.ar    1  UNL1       -0.0357
     34 C           6.0040   16.8190   29.9420 C.ar    1  UNL1       -0.0509
     35 H           5.2359   13.5285   30.4498 H       1  UNL1        0.0625
     36 H           7.4518   13.6096   31.6073 H       1  UNL1        0.0639
     37 H           8.6975   14.1500   33.4625 H       1  UNL1        0.0834
     38 H          11.0564   13.5159   34.4540 H       1  UNL1        0.0512
     39 H          12.4751   14.5688   33.9806 H       1  UNL1        0.0512
     40 H          10.6350   15.3640   36.1560 H       1  UNL1        0.1464
     41 H          13.7279   13.6063   35.6418 H       1  UNL1        0.0637
     42 H          15.8956   14.2106   36.7032 H       1  UNL1        0.0647
     43 H          12.0131   17.2929   37.0668 H       1  UNL1        0.0642
     44 H          13.1256   16.0574   34.1535 H       1  UNL1        0.0625
     45 H          15.1963   17.4458   34.1942 H       1  UNL1        0.0646
     46 H          13.4246   20.1750   31.3625 H       1  UNL1        0.0646
     47 H          11.3636   18.7677   31.2797 H       1  UNL1        0.0625
     48 H           7.7962   17.8162   30.6411 H       1  UNL1        0.0639
     49 H           5.6073   17.7213   29.4536 H       1  UNL1        0.0625
@<TRIPOS>UNITY_ATOM_ATTR
3 1
charge -1
@<TRIPOS>BOND
     1     1     2   ar
     2     2     3   ar
     3     2     4    1
     4     4     5   ar
     5     5     6   ar
     6     6     7   ar
     7     7     8    1
     8     8     9   ar
     9     9    10   ar
    10    10    11    1
    11    11    12    1
    12    12    13    1
    13    13    14   ar
    14    14    15   ar
    15    15    16   ar
    16    16    17    1
    17    16    18   ar
    18    18    19    1
    19    19    20    1
    20    19    21    1
    21    19    22    1
    22    18    23   ar
    23    10    24   ar
    24    24    25    1
    25    25    26   ar
    26    26    27   ar
    27    27    28   ar
    28    28    29    1
    29    28    30   ar
    30    30    31   ar
    31    24    32   ar
    32     7    33   ar
    33    33    34   ar
    34    34     4   ar
    35    32     8   ar
    36    23    13   ar
    37    31    25   ar
    38     5    35    1
    39     6    36    1
    40     9    37    1
    41    11    38    1
    42    11    39    1
    43    12    40    1
    44    14    41    1
    45    15    42    1
    46    23    43    1
    47    26    44    1
    48    27    45    1
    49    30    46    1
    50    31    47    1
    51    33    48    1
    52    34    49    1
@<TRIPOS>MOLECULE
22sa23_out
 49 52 0 0 0
SMALL
GASTEIGER

@<TRIPOS>ATOM
      1 O          15.4670   18.4100   33.3840 O.co2   1  UNL1       -0.5446
      2 C          14.8970   19.4720   33.2020 C.2     1  UNL1        0.0717
      3 O          15.4070   20.6580   33.5860 O.co2   1  UNL1       -0.5446
      4 C          13.5900   19.5670   32.4980 C.ar    1  UNL1       -0.0026
      5 C          12.8020   18.4490   32.1970 C.ar    1  UNL1       -0.0509
      6 C          11.6180   18.6010   31.4580 C.ar    1  UNL1       -0.0357
      7 C          11.2330   19.8670   30.9900 C.ar    1  UNL1        0.0654
      8 N          10.1000   19.9970   30.1320 N.ar    1  UNL1       -0.2390
      9 C           8.8670   19.4230   30.3120 C.ar    1  UNL1        0.0365
     10 C           8.0290   19.9380   29.3500 C.ar    1  UNL1        0.0153
     11 C           6.5610   19.6900   29.2490 C.3     1  UNL1        0.0379
     12 N           5.7710   20.9010   29.0440 N.pl3   1  UNL1       -0.3396
     13 C           5.1160   21.1140   27.8340 C.ar    1  UNL1        0.0281
     14 C           4.4370   22.2940   27.5150 C.ar    1  UNL1       -0.0381
     15 C           3.8740   22.4810   26.2500 C.ar    1  UNL1       -0.0241
     16 C           4.0060   21.4980   25.2790 C.ar    1  UNL1        0.1351
     17 F           3.4550   21.7110   24.0780 F       1  UNL1       -0.2049
     18 C           4.7050   20.3270   25.5410 C.ar    1  UNL1        0.0916
     19 C           4.8750   19.2650   24.5010 C.3     1  UNL1        0.4201
     20 F           5.1060   18.0140   24.9780 F       1  UNL1       -0.1658
     21 F           3.7800   19.1570   23.6950 F       1  UNL1       -0.1658
     22 F           5.9160   19.5380   23.6620 F       1  UNL1       -0.1658
     23 C           5.2710   20.1560   26.8190 C.ar    1  UNL1       -0.0264
     24 C           8.8720   20.7440   28.5260 C.ar    1  UNL1        0.0978
     25 C           8.5220   21.4680   27.2930 C.ar    1  UNL1        0.0026
     26 C           8.5490   20.8280   26.0410 C.ar    1  UNL1       -0.0498
     27 C           8.1950   21.5090   24.8730 C.ar    1  UNL1       -0.0258
     28 C           7.8360   22.8470   24.9460 C.ar    1  UNL1        0.1234
     29 F           7.5050   23.5030   23.8250 F       1  UNL1       -0.2055
     30 C           7.8220   23.5120   26.1630 C.ar    1  UNL1       -0.0258
     31 C           8.1640   22.8270   27.3350 C.ar    1  UNL1       -0.0498
     32 N          10.1140   20.8020   29.0410 N.ar    1  UNL1       -0.1661
     33 C          12.0130   20.9850   31.3190 C.ar    1  UNL1       -0.0357
     34 C          13.1850   20.8340   32.0660 C.ar    1  UNL1       -0.0509
     35 H          13.1111   17.4506   32.5400 H       1  UNL1        0.0625
     36 H          10.9892   17.7240   31.2448 H       1  UNL1        0.0639
     37 H           8.5979   18.6865   31.0835 H       1  UNL1        0.0834
     38 H           6.3815   19.0114   28.4021 H       1  UNL1        0.0512
     39 H           6.2423   19.2586   30.2094 H       1  UNL1        0.0512
     40 H           5.7020   21.5690   29.7630 H       1  UNL1        0.1464
     41 H           4.3447   23.0872   28.2715 H       1  UNL1        0.0637
     42 H           3.3260   23.4075   26.0235 H       1  UNL1        0.0647
     43 H           5.8515   19.2454   27.0284 H       1  UNL1        0.0642
     44 H           8.8541   19.7729   25.9799 H       1  UNL1        0.0625
     45 H           8.2010   20.9884   23.9040 H       1  UNL1        0.0646
     46 H           7.5429   24.5751   26.2072 H       1  UNL1        0.0646
     47 H           8.1525   23.3574   28.2986 H       1  UNL1        0.0625
     48 H          11.7009   21.9863   30.9875 H       1  UNL1        0.0639
     49 H          13.7921   21.7167   32.3154 H       1  UNL1        0.0625
@<TRIPOS>UNITY_ATOM_ATTR
3 1
charge -1
@<TRIPOS>BOND
     1     1     2   ar
     2     2     3   ar
     3     2     4    1
     4     4     5   ar
     5     5     6   ar
     6     6     7   ar
     7     7     8    1
     8     8     9   ar
     9     9    10   ar
    10    10    11    1
    11    11    12    1
    12    12    13    1
    13    13    14   ar
    14    14    15   ar
    15    15    16   ar
    16    16    17    1
    17    16    18   ar
    18    18    19    1
    19    19    20    1
    20    19    21    1
    21    19    22    1
    22    18    23   ar
    23    10    24   ar
    24    24    25    1
    25    25    26   ar
    26    26    27   ar
    27    27    28   ar
    28    28    29    1
    29    28    30   ar
    30    30    31   ar
    31    24    32   ar
    32     7    33   ar
    33    33    34   ar
    34    34     4   ar
    35    32     8   ar
    36    23    13   ar
    37    31    25   ar
    38     5    35    1
    39     6    36    1
    40     9    37    1
    41    11    38    1
    42    11    39    1
    43    12    40    1
    44    14    41    1
    45    15    42    1
    46    23    43    1
    47    26    44    1
    48    27    45    1
    49    30    46    1
    50    31    47    1
    51    33    48    1
    52    34    49    1
@<TRIPOS>MOLECULE
22sa23_out
 49 52 0 0 0
SMALL
GASTEIGER

@<TRIPOS>ATOM
      1 O           5.3620   13.9390   32.0140 O.co2   1  UNL1       -0.5446
      2 C           6.3390   14.1760   31.3250 C.2     1  UNL1        0.0717
      3 O           6.3140   14.1580   29.9780 O.co2   1  UNL1       -0.5446
      4 C           7.6570   14.5480   31.9080 C.ar    1  UNL1       -0.0026
      5 C           7.9090   14.5490   33.2850 C.ar    1  UNL1       -0.0509
      6 C           9.1490   14.9900   33.7730 C.ar    1  UNL1       -0.0357
      7 C          10.1310   15.4610   32.8880 C.ar    1  UNL1        0.0654
      8 N          11.3390   16.0270   33.3960 N.ar    1  UNL1       -0.2390
      9 C          11.9970   17.1250   32.9040 C.ar    1  UNL1        0.0365
     10 C          13.0160   17.4220   33.7820 C.ar    1  UNL1        0.0153
     11 C          13.9080   18.6160   33.7120 C.3     1  UNL1        0.0379
     12 N          14.9290   18.5280   32.6730 N.pl3   1  UNL1       -0.3396
     13 C          15.1740   19.6150   31.8370 C.ar    1  UNL1        0.0281
     14 C          16.3500   19.7780   31.0990 C.ar    1  UNL1       -0.0381
     15 C          16.5000   20.8450   30.2100 C.ar    1  UNL1       -0.0241
     16 C          15.4630   21.7510   30.0310 C.ar    1  UNL1        0.1351
     17 F          15.6410   22.7610   29.1720 F       1  UNL1       -0.2049
     18 C          14.2640   21.6040   30.7160 C.ar    1  UNL1        0.0916
     19 C          13.1280   22.5590   30.5210 C.3     1  UNL1        0.4201
     20 F          13.0190   23.5340   31.4610 F       1  UNL1       -0.1658
     21 F          13.2010   23.2050   29.3230 F       1  UNL1       -0.1658
     22 F          11.9230   21.9180   30.5140 F       1  UNL1       -0.1658
     23 C          14.1270   20.5200   31.6030 C.ar    1  UNL1       -0.0264
     24 C          12.9910   16.3620   34.7390 C.ar    1  UNL1        0.0978
     25 C          13.9150   16.1220   35.8600 C.ar    1  UNL1        0.0026
     26 C          13.6770   16.6780   37.1300 C.ar    1  UNL1       -0.0498
     27 C          14.5410   16.4320   38.2010 C.ar    1  UNL1       -0.0258
     28 C          15.6660   15.6470   38.0010 C.ar    1  UNL1        0.1234
     29 F          16.5000   15.4180   39.0250 F       1  UNL1       -0.2055
     30 C          15.9410   15.1030   36.7540 C.ar    1  UNL1       -0.0258
     31 C          15.0680   15.3390   35.6850 C.ar    1  UNL1       -0.0498
     32 N          11.9420   15.5510   34.5130 N.ar    1  UNL1       -0.1661
     33 C           9.8810   15.4300   31.5080 C.ar    1  UNL1       -0.0357
     34 C           8.6500   14.9790   31.0230 C.ar    1  UNL1       -0.0509
     35 H           7.1343   14.2038   33.9855 H       1  UNL1        0.0625
     36 H           9.3519   14.9663   34.8539 H       1  UNL1        0.0639
     37 H          11.7555   17.6685   31.9786 H       1  UNL1        0.0834
     38 H          13.2868   19.5019   33.5137 H       1  UNL1        0.0512
     39 H          14.4355   18.6789   34.6752 H       1  UNL1        0.0512
     40 H          15.4460   17.6980   32.5620 H       1  UNL1        0.1464
     41 H          17.1700   19.0548   31.2202 H       1  UNL1        0.0637
     42 H          17.4398   20.9676   29.6516 H       1  UNL1        0.0647
     43 H          13.1711   20.3778   32.1284 H       1  UNL1        0.0642
     44 H          12.7953   17.3177   37.2831 H       1  UNL1        0.0625
     45 H          14.3302   16.8574   39.1933 H       1  UNL1        0.0646
     46 H          16.8414   14.4887   36.6061 H       1  UNL1        0.0646
     47 H          15.2874   14.9066   34.6976 H       1  UNL1        0.0625
     48 H          10.6579   15.7624   30.8037 H       1  UNL1        0.0639
     49 H           8.4615   14.9631   29.9394 H       1  UNL1        0.0625
@<TRIPOS>UNITY_ATOM_ATTR
3 1
charge -1
@<TRIPOS>BOND
     1     1     2   ar
     2     2     3   ar
     3     2     4    1
     4     4     5   ar
     5     5     6   ar
     6     6     7   ar
     7     7     8    1
     8     8     9   ar
     9     9    10   ar
    10    10    11    1
    11    11    12    1
    12    12    13    1
    13    13    14   ar
    14    14    15   ar
    15    15    16   ar
    16    16    17    1
    17    16    18   ar
    18    18    19    1
    19    19    20    1
    20    19    21    1
    21    19    22    1
    22    18    23   ar
    23    10    24   ar
    24    24    25    1
    25    25    26   ar
    26    26    27   ar
    27    27    28   ar
    28    28    29    1
    29    28    30   ar
    30    30    31   ar
    31    24    32   ar
    32     7    33   ar
    33    33    34   ar
    34    34     4   ar
    35    32     8   ar
    36    23    13   ar
    37    31    25   ar
    38     5    35    1
    39     6    36    1
    40     9    37    1
    41    11    38    1
    42    11    39    1
    43    12    40    1
    44    14    41    1
    45    15    42    1
    46    23    43    1
    47    26    44    1
    48    27    45    1
    49    30    46    1
    50    31    47    1
    51    33    48    1
    52    34    49    1
@<TRIPOS>MOLECULE
22sa23_out
 49 52 0 0 0
SMALL
GASTEIGER

@<TRIPOS>ATOM
      1 O           5.2240   19.9490   27.8110 O.co2   1  UNL1       -0.5446
      2 C           6.3400   20.1540   27.3670 C.2     1  UNL1        0.0717
      3 O           6.5860   20.3570   26.0580 O.co2   1  UNL1       -0.5446
      4 C           7.5440   20.2400   28.2370 C.ar    1  UNL1       -0.0026
      5 C           8.7390   20.8440   27.8270 C.ar    1  UNL1       -0.0509
      6 C           9.8640   20.8190   28.6670 C.ar    1  UNL1       -0.0357
      7 C           9.8080   20.1630   29.9060 C.ar    1  UNL1        0.0654
      8 N          10.9880   20.0290   30.6980 N.ar    1  UNL1       -0.2390
      9 C          11.9280   20.9990   30.9350 C.ar    1  UNL1        0.0365
     10 C          12.8040   20.5020   31.8740 C.ar    1  UNL1        0.0153
     11 C          13.9100   21.2640   32.5240 C.3     1  UNL1        0.0379
     12 N          13.4620   22.1700   33.5770 N.pl3   1  UNL1       -0.3396
     13 C          13.7850   21.9110   34.9070 C.ar    1  UNL1        0.0281
     14 C          15.0070   21.3700   35.3190 C.ar    1  UNL1       -0.0381
     15 C          15.3060   21.2160   36.6750 C.ar    1  UNL1       -0.0241
     16 C          14.3930   21.6240   37.6380 C.ar    1  UNL1        0.1351
     17 F          14.7120   21.4620   38.9270 F       1  UNL1       -0.2049
     18 C          13.1840   22.2010   37.2730 C.ar    1  UNL1        0.0916
     19 C          12.1960   22.6660   38.2970 C.3     1  UNL1        0.4201
     20 F          12.6950   23.4880   39.2570 F       1  UNL1       -0.1658
     21 F          11.1540   23.3420   37.7350 F       1  UNL1       -0.1658
     22 F          11.6300   21.6200   38.9670 F       1  UNL1       -0.1658
     23 C          12.9010   22.3550   35.9030 C.ar    1  UNL1       -0.0264
     24 C          12.3950   19.1490   32.0730 C.ar    1  UNL1        0.0978
     25 C          13.0290   18.1160   32.9100 C.ar    1  UNL1        0.0026
     26 C          14.3310   18.2860   33.4130 C.ar    1  UNL1       -0.0498
     27 C          14.9240   17.3170   34.2260 C.ar    1  UNL1       -0.0258
     28 C          14.2270   16.1550   34.5210 C.ar    1  UNL1        0.1234
     29 F          14.7990   15.2210   35.2930 F       1  UNL1       -0.2055
     30 C          12.9490   15.9480   34.0210 C.ar    1  UNL1       -0.0258
     31 C          12.3490   16.9250   33.2170 C.ar    1  UNL1       -0.0498
     32 N          11.2670   18.8940   31.3840 N.ar    1  UNL1       -0.1661
     33 C           8.6000   19.5840   30.3200 C.ar    1  UNL1       -0.0357
     34 C           7.4770   19.6210   29.4890 C.ar    1  UNL1       -0.0509
     35 H           8.7965   21.3385   26.8461 H       1  UNL1        0.0625
     36 H          10.7935   21.3160   28.3522 H       1  UNL1        0.0639
     37 H          11.9738   21.9911   30.4622 H       1  UNL1        0.0834
     38 H          14.6158   20.5437   32.9634 H       1  UNL1        0.0512
     39 H          14.3733   21.8848   31.7430 H       1  UNL1        0.0512
     40 H          12.9310   22.9650   33.3470 H       1  UNL1        0.1464
     41 H          15.7444   21.0609   34.5635 H       1  UNL1        0.0637
     42 H          16.2649   20.7714   36.9797 H       1  UNL1        0.0647
     43 H          11.9590   22.8377   35.6037 H       1  UNL1        0.0642
     44 H          14.8925   19.1980   33.1619 H       1  UNL1        0.0625
     45 H          15.9354   17.4744   34.6288 H       1  UNL1        0.0646
     46 H          12.4088   15.0189   34.2556 H       1  UNL1        0.0646
     47 H          11.3359   16.7587   32.8220 H       1  UNL1        0.0625
     48 H           8.5358   19.0978   31.3046 H       1  UNL1        0.0639
     49 H           6.5350   19.1606   29.8217 H       1  UNL1        0.0625
@<TRIPOS>UNITY_ATOM_ATTR
3 1
charge -1
@<TRIPOS>BOND
     1     1     2   ar
     2     2     3   ar
     3     2     4    1
     4     4     5   ar
     5     5     6   ar
     6     6     7   ar
     7     7     8    1
     8     8     9   ar
     9     9    10   ar
    10    10    11    1
    11    11    12    1
    12    12    13    1
    13    13    14   ar
    14    14    15   ar
    15    15    16   ar
    16    16    17    1
    17    16    18   ar
    18    18    19    1
    19    19    20    1
    20    19    21    1
    21    19    22    1
    22    18    23   ar
    23    10    24   ar
    24    24    25    1
    25    25    26   ar
    26    26    27   ar
    27    27    28   ar
    28    28    29    1
    29    28    30   ar
    30    30    31   ar
    31    24    32   ar
    32     7    33   ar
    33    33    34   ar
    34    34     4   ar
    35    32     8   ar
    36    23    13   ar
    37    31    25   ar
    38     5    35    1
    39     6    36    1
    40     9    37    1
    41    11    38    1
    42    11    39    1
    43    12    40    1
    44    14    41    1
    45    15    42    1
    46    23    43    1
    47    26    44    1
    48    27    45    1
    49    30    46    1
    50    31    47    1
    51    33    48    1
    52    34    49    1
@<TRIPOS>MOLECULE
22sa23_out
 49 52 0 0 0
SMALL
GASTEIGER

@<TRIPOS>ATOM
      1 O          15.6090   18.3700   33.7870 O.co2   1  UNL1       -0.5446
      2 C          15.0390   19.4360   33.6290 C.2     1  UNL1        0.0717
      3 O          15.4240   20.5750   34.2370 O.co2   1  UNL1       -0.5446
      4 C          13.8790   19.5940   32.7120 C.ar    1  UNL1       -0.0026
      5 C          13.4940   20.8280   32.1740 C.ar    1  UNL1       -0.0509
      6 C          12.3400   20.9210   31.3800 C.ar    1  UNL1       -0.0357
      7 C          11.5500   19.7860   31.1450 C.ar    1  UNL1        0.0654
      8 N          10.3110   19.9090   30.4460 N.ar    1  UNL1       -0.2390
      9 C           9.1280   19.2930   30.7640 C.ar    1  UNL1        0.0365
     10 C           8.1580   19.8120   29.9360 C.ar    1  UNL1        0.0153
     11 C           6.6960   19.5240   30.0180 C.3     1  UNL1        0.0379
     12 N           6.1510   18.8990   28.8160 N.pl3   1  UNL1       -0.3396
     13 C           5.3390   19.6310   27.9530 C.ar    1  UNL1        0.0281
     14 C           5.3850   19.5160   26.5600 C.ar    1  UNL1       -0.0381
     15 C           4.4830   20.2130   25.7510 C.ar    1  UNL1       -0.0241
     16 C           3.5080   21.0140   26.3280 C.ar    1  UNL1        0.1351
     17 F           2.6610   21.6660   25.5230 F       1  UNL1       -0.2049
     18 C           3.4040   21.1260   27.7080 C.ar    1  UNL1        0.0916
     19 C           2.3460   21.9700   28.3490 C.3     1  UNL1        0.4201
     20 F           2.3650   21.9950   29.7080 F       1  UNL1       -0.1658
     21 F           2.4210   23.2720   27.9540 F       1  UNL1       -0.1658
     22 F           1.0910   21.5580   28.0060 F       1  UNL1       -0.1658
     23 C           4.3160   20.4140   28.5090 C.ar    1  UNL1       -0.0264
     24 C           8.8660   20.6680   29.0390 C.ar    1  UNL1        0.0978
     25 C           8.3400   21.4190   27.8860 C.ar    1  UNL1        0.0026
     26 C           8.6690   21.0540   26.5690 C.ar    1  UNL1       -0.0498
     27 C           8.1530   21.7520   25.4740 C.ar    1  UNL1       -0.0258
     28 C           7.3210   22.8410   25.6920 C.ar    1  UNL1        0.1234
     29 F           6.8320   23.5170   24.6430 F       1  UNL1       -0.2055
     30 C           6.9960   23.2400   26.9800 C.ar    1  UNL1       -0.0258
     31 C           7.5030   22.5320   28.0770 C.ar    1  UNL1       -0.0498
     32 N          10.1630   20.7470   29.3910 N.ar    1  UNL1       -0.1661
     33 C          11.9570   18.5480   31.6640 C.ar    1  UNL1       -0.0357
     34 C          13.1130   18.4550   32.4440 C.ar    1  UNL1       -0.0509
     35 H          14.0968   21.7262   32.3738 H       1  UNL1        0.0625
     36 H          12.0541   21.8879   30.9403 H       1  UNL1        0.0639
     37 H           8.9809   18.5255   31.5381 H       1  UNL1        0.0834
     38 H           6.5225   18.8491   30.8691 H       1  UNL1        0.0512
     39 H           6.1848   20.4907   30.1368 H       1  UNL1        0.0512
     40 H           6.3580   17.9580   28.6160 H       1  UNL1        0.1464
     41 H           6.1419   18.8677   26.0943 H       1  UNL1        0.0637
     42 H           4.5462   20.1264   24.6562 H       1  UNL1        0.0647
     43 H           4.2242   20.4730   29.6036 H       1  UNL1        0.0642
     44 H           9.3450   20.2034   26.3973 H       1  UNL1        0.0625
     45 H           8.4039   21.4412   24.4491 H       1  UNL1        0.0646
     46 H           6.3420   24.1099   27.1395 H       1  UNL1        0.0646
     47 H           7.2437   22.8499   29.0976 H       1  UNL1        0.0625
     48 H          11.3632   17.6457   31.4560 H       1  UNL1        0.0639
     49 H          13.4221   17.4803   32.8494 H       1  UNL1        0.0625
@<TRIPOS>UNITY_ATOM_ATTR
3 1
charge -1
@<TRIPOS>BOND
     1     1     2   ar
     2     2     3   ar
     3     2     4    1
     4     4     5   ar
     5     5     6   ar
     6     6     7   ar
     7     7     8    1
     8     8     9   ar
     9     9    10   ar
    10    10    11    1
    11    11    12    1
    12    12    13    1
    13    13    14   ar
    14    14    15   ar
    15    15    16   ar
    16    16    17    1
    17    16    18   ar
    18    18    19    1
    19    19    20    1
    20    19    21    1
    21    19    22    1
    22    18    23   ar
    23    10    24   ar
    24    24    25    1
    25    25    26   ar
    26    26    27   ar
    27    27    28   ar
    28    28    29    1
    29    28    30   ar
    30    30    31   ar
    31    24    32   ar
    32     7    33   ar
    33    33    34   ar
    34    34     4   ar
    35    32     8   ar
    36    23    13   ar
    37    31    25   ar
    38     5    35    1
    39     6    36    1
    40     9    37    1
    41    11    38    1
    42    11    39    1
    43    12    40    1
    44    14    41    1
    45    15    42    1
    46    23    43    1
    47    26    44    1
    48    27    45    1
    49    30    46    1
    50    31    47    1
    51    33    48    1
    52    34    49    1
@<TRIPOS>MOLECULE
22sa23_out
 49 52 0 0 0
SMALL
GASTEIGER

@<TRIPOS>ATOM
      1 O           1.7810   15.5400   28.5440 O.co2   1  UNL1       -0.5446
      2 C           2.1970   16.1350   29.5230 C.2     1  UNL1        0.0717
      3 O           1.6610   15.9990   30.7510 O.co2   1  UNL1       -0.5446
      4 C           3.3710   17.0470   29.4650 C.ar    1  UNL1       -0.0026
      5 C           3.2640   18.4110   29.1690 C.ar    1  UNL1       -0.0509
      6 C           4.4200   19.1990   29.0500 C.ar    1  UNL1       -0.0357
      7 C           5.6890   18.6190   29.1970 C.ar    1  UNL1        0.0654
      8 N           6.8620   19.3940   28.9500 N.ar    1  UNL1       -0.2390
      9 C           7.9130   19.5850   29.8110 C.ar    1  UNL1        0.0365
     10 C           8.8960   20.2550   29.1170 C.ar    1  UNL1        0.0153
     11 C          10.2670   20.5590   29.6230 C.3     1  UNL1        0.0379
     12 N          10.7550   19.6040   30.6140 N.pl3   1  UNL1       -0.3396
     13 C          11.8650   19.9110   31.3950 C.ar    1  UNL1        0.0281
     14 C          12.2970   21.2170   31.6510 C.ar    1  UNL1       -0.0381
     15 C          13.3670   21.4650   32.5150 C.ar    1  UNL1       -0.0241
     16 C          14.0030   20.4090   33.1530 C.ar    1  UNL1        0.1351
     17 F          15.0230   20.6830   33.9740 F       1  UNL1       -0.2049
     18 C          13.5820   19.1010   32.9560 C.ar    1  UNL1        0.0916
     19 C          14.2430   17.9510   33.6510 C.3     1  UNL1        0.4201
     20 F          14.6390   18.1930   34.9290 F       1  UNL1       -0.1658
     21 F          13.4340   16.8560   33.7140 F       1  UNL1       -0.1658
     22 F          15.3630   17.5360   32.9910 F       1  UNL1       -0.1658
     23 C          12.4990   18.8680   32.0870 C.ar    1  UNL1       -0.0264
     24 C           8.3090   20.5530   27.8500 C.ar    1  UNL1        0.0978
     25 C           8.8810   21.3320   26.7390 C.ar    1  UNL1        0.0026
     26 C           9.6510   22.4830   26.9790 C.ar    1  UNL1       -0.0498
     27 C          10.2130   23.2100   25.9260 C.ar    1  UNL1       -0.0258
     28 C           9.9860   22.8030   24.6200 C.ar    1  UNL1        0.1234
     29 F          10.5170   23.5040   23.6090 F       1  UNL1       -0.2055
     30 C           9.2110   21.6840   24.3500 C.ar    1  UNL1       -0.0258
     31 C           8.6590   20.9480   25.4050 C.ar    1  UNL1       -0.0498
     32 N           7.0930   19.9860   27.7520 N.ar    1  UNL1       -0.1661
     33 C           5.7870   17.2590   29.5220 C.ar    1  UNL1       -0.0357
     34 C           4.6350   16.4780   29.6520 C.ar    1  UNL1       -0.0509
     35 H           2.2724   18.8663   29.0294 H       1  UNL1        0.0625
     36 H           4.3304   20.2752   28.8407 H       1  UNL1        0.0639
     37 H           7.9616   19.2626   30.8616 H       1  UNL1        0.0834
     38 H          10.9602   20.5571   28.7689 H       1  UNL1        0.0512
     39 H          10.2147   21.5385   30.1208 H       1  UNL1        0.0512
     40 H          10.2970   18.7400   30.7290 H       1  UNL1        0.1464
     41 H          11.7866   22.0614   31.1647 H       1  UNL1        0.0637
     42 H          13.7052   22.4971   32.6895 H       1  UNL1        0.0647
     43 H          12.1394   17.8380   31.9465 H       1  UNL1        0.0642
     44 H           9.8142   22.8176   28.0141 H       1  UNL1        0.0625
     45 H          10.8300   24.0972   26.1314 H       1  UNL1        0.0646
     46 H           9.0309   21.3761   23.3094 H       1  UNL1        0.0646
     47 H           8.0458   20.0609   25.1882 H       1  UNL1        0.0625
     48 H           6.7764   16.8036   29.6757 H       1  UNL1        0.0639
     49 H           4.7230   15.4106   29.9026 H       1  UNL1        0.0625
@<TRIPOS>UNITY_ATOM_ATTR
3 1
charge -1
@<TRIPOS>BOND
     1     1     2   ar
     2     2     3   ar
     3     2     4    1
     4     4     5   ar
     5     5     6   ar
     6     6     7   ar
     7     7     8    1
     8     8     9   ar
     9     9    10   ar
    10    10    11    1
    11    11    12    1
    12    12    13    1
    13    13    14   ar
    14    14    15   ar
    15    15    16   ar
    16    16    17    1
    17    16    18   ar
    18    18    19    1
    19    19    20    1
    20    19    21    1
    21    19    22    1
    22    18    23   ar
    23    10    24   ar
    24    24    25    1
    25    25    26   ar
    26    26    27   ar
    27    27    28   ar
    28    28    29    1
    29    28    30   ar
    30    30    31   ar
    31    24    32   ar
    32     7    33   ar
    33    33    34   ar
    34    34     4   ar
    35    32     8   ar
    36    23    13   ar
    37    31    25   ar
    38     5    35    1
    39     6    36    1
    40     9    37    1
    41    11    38    1
    42    11    39    1
    43    12    40    1
    44    14    41    1
    45    15    42    1
    46    23    43    1
    47    26    44    1
    48    27    45    1
    49    30    46    1
    50    31    47    1
    51    33    48    1
    52    34    49    1
@<TRIPOS>MOLECULE
22sa23_out
 49 52 0 0 0
SMALL
GASTEIGER

@<TRIPOS>ATOM
      1 O           1.4720   16.1330   31.0760 O.co2   1  UNL1       -0.5446
      2 C           1.9480   16.1370   29.9540 C.2     1  UNL1        0.0717
      3 O           1.3560   15.5430   28.9000 O.co2   1  UNL1       -0.5446
      4 C           3.2200   16.8370   29.6270 C.ar    1  UNL1       -0.0026
      5 C           4.4820   16.2840   29.8820 C.ar    1  UNL1       -0.0509
      6 C           5.6420   17.0320   29.6240 C.ar    1  UNL1       -0.0357
      7 C           5.5450   18.3450   29.1400 C.ar    1  UNL1        0.0654
      8 N           6.7190   19.1450   29.0020 N.ar    1  UNL1       -0.2390
      9 C           7.7120   19.3070   29.9330 C.ar    1  UNL1        0.0365
     10 C           8.7260   20.0200   29.3340 C.ar    1  UNL1        0.0153
     11 C          10.0590   20.3150   29.9360 C.3     1  UNL1        0.0379
     12 N          10.5240   19.2930   30.8690 N.pl3   1  UNL1       -0.3396
     13 C          11.7820   19.4010   31.4560 C.ar    1  UNL1        0.0281
     14 C          12.4200   18.3510   32.1230 C.ar    1  UNL1       -0.0381
     15 C          13.7200   18.4950   32.6160 C.ar    1  UNL1       -0.0241
     16 C          14.4070   19.6860   32.4240 C.ar    1  UNL1        0.1351
     17 F          15.6500   19.7900   32.9080 F       1  UNL1       -0.2049
     18 C          13.8240   20.7410   31.7340 C.ar    1  UNL1        0.0916
     19 C          14.5560   22.0260   31.5010 C.3     1  UNL1        0.4201
     20 F          14.0420   22.8210   30.5260 F       1  UNL1       -0.1658
     21 F          14.6030   22.8000   32.6230 F       1  UNL1       -0.1658
     22 F          15.8580   21.8120   31.1540 F       1  UNL1       -0.1658
     23 C          12.5160   20.5780   31.2400 C.ar    1  UNL1       -0.0264
     24 C           8.2130   20.3710   28.0490 C.ar    1  UNL1        0.0978
     25 C           8.8400   21.2090   27.0120 C.ar    1  UNL1        0.0026
     26 C           9.7170   22.2540   27.3550 C.ar    1  UNL1       -0.0498
     27 C          10.3300   23.0350   26.3710 C.ar    1  UNL1       -0.0258
     28 C          10.0480   22.7920   25.0350 C.ar    1  UNL1        0.1234
     29 F          10.6280   23.5460   24.0910 F       1  UNL1       -0.2055
     30 C           9.1680   21.7840   24.6670 C.ar    1  UNL1       -0.0258
     31 C           8.5650   20.9930   25.6520 C.ar    1  UNL1       -0.0498
     32 N           7.0130   19.7960   27.8500 N.ar    1  UNL1       -0.1661
     33 C           4.2790   18.8810   28.8620 C.ar    1  UNL1       -0.0357
     34 C           3.1250   18.1310   29.1070 C.ar    1  UNL1       -0.0509
     35 H           4.5640   15.2635   30.2844 H       1  UNL1        0.0625
     36 H           6.6317   16.5861   29.8023 H       1  UNL1        0.0639
     37 H           7.7007   18.9356   30.9683 H       1  UNL1        0.0834
     38 H          10.7948   20.4028   29.1230 H       1  UNL1        0.0512
     39 H           9.9518   21.2473   30.5098 H       1  UNL1        0.0512
     40 H           9.9470   18.5250   31.0830 H       1  UNL1        0.1464
     41 H          11.8908   17.3968   32.2620 H       1  UNL1        0.0637
     42 H          14.1986   17.6648   33.1560 H       1  UNL1        0.0647
     43 H          12.0555   21.3969   30.6679 H       1  UNL1        0.0642
     44 H           9.9239   22.4601   28.4155 H       1  UNL1        0.0625
     45 H          11.0298   23.8352   26.6538 H       1  UNL1        0.0646
     46 H           8.9450   21.6071   23.6045 H       1  UNL1        0.0646
     47 H           7.8686   20.1940   25.3577 H       1  UNL1        0.0625
     48 H           4.1937   19.8969   28.4490 H       1  UNL1        0.0639
     49 H           2.1365   18.5616   28.8893 H       1  UNL1        0.0625
@<TRIPOS>UNITY_ATOM_ATTR
3 1
charge -1
@<TRIPOS>BOND
     1     1     2   ar
     2     2     3   ar
     3     2     4    1
     4     4     5   ar
     5     5     6   ar
     6     6     7   ar
     7     7     8    1
     8     8     9   ar
     9     9    10   ar
    10    10    11    1
    11    11    12    1
    12    12    13    1
    13    13    14   ar
    14    14    15   ar
    15    15    16   ar
    16    16    17    1
    17    16    18   ar
    18    18    19    1
    19    19    20    1
    20    19    21    1
    21    19    22    1
    22    18    23   ar
    23    10    24   ar
    24    24    25    1
    25    25    26   ar
    26    26    27   ar
    27    27    28   ar
    28    28    29    1
    29    28    30   ar
    30    30    31   ar
    31    24    32   ar
    32     7    33   ar
    33    33    34   ar
    34    34     4   ar
    35    32     8   ar
    36    23    13   ar
    37    31    25   ar
    38     5    35    1
    39     6    36    1
    40     9    37    1
    41    11    38    1
    42    11    39    1
    43    12    40    1
    44    14    41    1
    45    15    42    1
    46    23    43    1
    47    26    44    1
    48    27    45    1
    49    30    46    1
    50    31    47    1
    51    33    48    1
    52    34    49    1
@<TRIPOS>MOLECULE
22sa23_out
 49 52 0 0 0
SMALL
GASTEIGER

@<TRIPOS>ATOM
      1 O          15.3430   19.5010   31.7890 O.co2   1  UNL1       -0.5446
      2 C          14.3290   19.1910   32.3900 C.2     1  UNL1        0.0717
      3 O          14.3390   18.6660   33.6300 O.co2   1  UNL1       -0.5446
      4 C          12.9690   19.4010   31.8250 C.ar    1  UNL1       -0.0026
      5 C          12.4980   20.6550   31.4170 C.ar    1  UNL1       -0.0509
      6 C          11.1750   20.7980   30.9700 C.ar    1  UNL1       -0.0357
      7 C          10.3090   19.6940   30.9560 C.ar    1  UNL1        0.0654
      8 N           8.9320   19.8690   30.6230 N.ar    1  UNL1       -0.2390
      9 C           8.2700   21.0620   30.4840 C.ar    1  UNL1        0.0365
     10 C           7.0120   20.7810   30.0000 C.ar    1  UNL1        0.0153
     11 C           5.9950   21.7870   29.5770 C.3     1  UNL1        0.0379
     12 N           6.4360   22.6480   28.4830 N.pl3   1  UNL1       -0.3396
     13 C           6.7060   22.1040   27.2300 C.ar    1  UNL1        0.0281
     14 C           7.8310   22.4320   26.4680 C.ar    1  UNL1       -0.0381
     15 C           8.0930   21.7870   25.2560 C.ar    1  UNL1       -0.0241
     16 C           7.2430   20.7870   24.8040 C.ar    1  UNL1        0.1351
     17 F           7.5250   20.1900   23.6400 F       1  UNL1       -0.2049
     18 C           6.1360   20.4040   25.5490 C.ar    1  UNL1        0.0916
     19 C           5.2190   19.3130   25.0880 C.3     1  UNL1        0.4201
     20 F           5.7800   18.3940   24.2590 F       1  UNL1       -0.1658
     21 F           4.7000   18.6050   26.1300 F       1  UNL1       -0.1658
     22 F           4.1410   19.8090   24.4140 F       1  UNL1       -0.1658
     23 C           5.8890   21.0600   26.7700 C.ar    1  UNL1       -0.0264
     24 C           6.9380   19.3550   29.9860 C.ar    1  UNL1        0.0978
     25 C           5.7890   18.5020   29.6390 C.ar    1  UNL1        0.0026
     26 C           4.5070   19.0510   29.4550 C.ar    1  UNL1       -0.0498
     27 C           3.4200   18.2450   29.1030 C.ar    1  UNL1       -0.0258
     28 C           3.6040   16.8780   28.9580 C.ar    1  UNL1        0.1234
     29 F           2.5600   16.1040   28.6290 F       1  UNL1       -0.2055
     30 C           4.8520   16.3050   29.1560 C.ar    1  UNL1       -0.0258
     31 C           5.9430   17.1130   29.4950 C.ar    1  UNL1       -0.0498
     32 N           8.1260   18.8210   30.3260 N.ar    1  UNL1       -0.1661
     33 C          10.7970   18.4360   31.3400 C.ar    1  UNL1       -0.0357
     34 C          12.1180   18.2930   31.7730 C.ar    1  UNL1       -0.0509
     35 H          13.1654   21.5289   31.4468 H       1  UNL1        0.0625
     36 H          10.8155   21.7801   30.6291 H       1  UNL1        0.0639
     37 H           8.6704   22.0598   30.7164 H       1  UNL1        0.0834
     38 H           5.0908   21.2508   29.2532 H       1  UNL1        0.0512
     39 H           5.8106   22.4394   30.4433 H       1  UNL1        0.0512
     40 H           6.5430   23.6140   28.6330 H       1  UNL1        0.1464
     41 H           8.5208   23.2097   26.8277 H       1  UNL1        0.0637
     42 H           8.9728   22.0718   24.6603 H       1  UNL1        0.0647
     43 H           5.0305   20.7449   27.3812 H       1  UNL1        0.0642
     44 H           4.3572   20.1323   29.5903 H       1  UNL1        0.0625
     45 H           2.4275   18.6913   28.9425 H       1  UNL1        0.0646
     46 H           4.9835   15.2184   29.0468 H       1  UNL1        0.0646
     47 H           6.9314   16.6559   29.6503 H       1  UNL1        0.0625
     48 H          10.1363   17.5574   31.3000 H       1  UNL1        0.0639
     49 H          12.4904   17.3029   32.0747 H       1  UNL1        0.0625
@<TRIPOS>UNITY_ATOM_ATTR
3 1
charge -1
@<TRIPOS>BOND
     1     1     2   ar
     2     2     3   ar
     3     2     4    1
     4     4     5   ar
     5     5     6   ar
     6     6     7   ar
     7     7     8    1
     8     8     9   ar
     9     9    10   ar
    10    10    11    1
    11    11    12    1
    12    12    13    1
    13    13    14   ar
    14    14    15   ar
    15    15    16   ar
    16    16    17    1
    17    16    18   ar
    18    18    19    1
    19    19    20    1
    20    19    21    1
    21    19    22    1
    22    18    23   ar
    23    10    24   ar
    24    24    25    1
    25    25    26   ar
    26    26    27   ar
    27    27    28   ar
    28    28    29    1
    29    28    30   ar
    30    30    31   ar
    31    24    32   ar
    32     7    33   ar
    33    33    34   ar
    34    34     4   ar
    35    32     8   ar
    36    23    13   ar
    37    31    25   ar
    38     5    35    1
    39     6    36    1
    40     9    37    1
    41    11    38    1
    42    11    39    1
    43    12    40    1
    44    14    41    1
    45    15    42    1
    46    23    43    1
    47    26    44    1
    48    27    45    1
    49    30    46    1
    50    31    47    1
    51    33    48    1
    52    34    49    1
@<TRIPOS>MOLECULE
22sa23_out
 49 52 0 0 0
SMALL
GASTEIGER

@<TRIPOS>ATOM
      1 O          15.8290   21.3350   34.1340 O.co2   1  UNL1       -0.5446
      2 C          15.3650   20.2820   33.7330 C.2     1  UNL1        0.0717
      3 O          15.8290   19.0770   34.1180 O.co2   1  UNL1       -0.5446
      4 C          14.2060   20.2210   32.8020 C.ar    1  UNL1       -0.0026
      5 C          13.7390   21.3340   32.0920 C.ar    1  UNL1       -0.0509
      6 C          12.5900   21.2280   31.2920 C.ar    1  UNL1       -0.0357
      7 C          11.8860   20.0160   31.2230 C.ar    1  UNL1        0.0654
      8 N          10.6490   19.9470   30.5140 N.ar    1  UNL1       -0.2390
      9 C           9.6410   19.0390   30.7140 C.ar    1  UNL1        0.0365
     10 C           8.5740   19.4310   29.9370 C.ar    1  UNL1        0.0153
     11 C           7.2180   18.8080   29.9390 C.3     1  UNL1        0.0379
     12 N           6.2430   19.5220   30.7580 N.pl3   1  UNL1       -0.3396
     13 C           5.4690   20.5370   30.1990 C.ar    1  UNL1        0.0281
     14 C           5.3280   21.8070   30.7660 C.ar    1  UNL1       -0.0381
     15 C           4.6090   22.8120   30.1140 C.ar    1  UNL1       -0.0241
     16 C           4.0420   22.5630   28.8710 C.ar    1  UNL1        0.1351
     17 F           3.3600   23.5480   28.2730 F       1  UNL1       -0.2049
     18 C           4.1900   21.3270   28.2550 C.ar    1  UNL1        0.0916
     19 C           3.6010   21.0470   26.9070 C.3     1  UNL1        0.4201
     20 F           3.9710   21.9060   25.9210 F       1  UNL1       -0.1658
     21 F           3.9250   19.8020   26.4560 F       1  UNL1       -0.1658
     22 F           2.2380   21.0810   26.9320 F       1  UNL1       -0.1658
     23 C           4.9210   20.3280   28.9240 C.ar    1  UNL1       -0.0264
     24 C           9.0620   20.5400   29.1810 C.ar    1  UNL1        0.0978
     25 C           8.3730   21.3010   28.1260 C.ar    1  UNL1        0.0026
     26 C           8.0840   20.7180   26.8800 C.ar    1  UNL1       -0.0498
     27 C           7.4090   21.4320   25.8850 C.ar    1  UNL1       -0.0258
     28 C           7.0410   22.7480   26.1230 C.ar    1  UNL1        0.1234
     29 F           6.4020   23.4370   25.1670 F       1  UNL1       -0.2055
     30 C           7.3330   23.3590   27.3340 C.ar    1  UNL1       -0.0258
     31 C           7.9970   22.6390   28.3350 C.ar    1  UNL1       -0.0498
     32 N          10.3070   20.8650   29.5760 N.ar    1  UNL1       -0.1661
     33 C          12.3750   18.8990   31.9150 C.ar    1  UNL1       -0.0357
     34 C          13.5260   19.0030   32.7010 C.ar    1  UNL1       -0.0509
     35 H          14.2733   22.2930   32.1611 H       1  UNL1        0.0625
     36 H          12.2404   22.0983   30.7172 H       1  UNL1        0.0639
     37 H           9.6780   18.1595   31.3736 H       1  UNL1        0.0834
     38 H           6.8474   18.7804   28.9037 H       1  UNL1        0.0512
     39 H           7.3275   17.8035   30.3738 H       1  UNL1        0.0512
     40 H           6.1320   19.2860   31.7060 H       1  UNL1        0.1464
     41 H           5.7906   22.0185   31.7413 H       1  UNL1        0.0637
     42 H           4.4922   23.7993   30.5847 H       1  UNL1        0.0647
     43 H           5.0673   19.3545   28.4332 H       1  UNL1        0.0642
     44 H           8.3945   19.6811   26.6841 H       1  UNL1        0.0625
     45 H           7.1721   20.9546   24.9227 H       1  UNL1        0.0646
     46 H           7.0438   24.4060   27.5074 H       1  UNL1        0.0646
     47 H           8.2266   23.1256   29.2945 H       1  UNL1        0.0625
     48 H          11.8499   17.9354   31.8389 H       1  UNL1        0.0639
     49 H          13.8992   18.1218   33.2433 H       1  UNL1        0.0625
@<TRIPOS>UNITY_ATOM_ATTR
3 1
charge -1
@<TRIPOS>BOND
     1     1     2   ar
     2     2     3   ar
     3     2     4    1
     4     4     5   ar
     5     5     6   ar
     6     6     7   ar
     7     7     8    1
     8     8     9   ar
     9     9    10   ar
    10    10    11    1
    11    11    12    1
    12    12    13    1
    13    13    14   ar
    14    14    15   ar
    15    15    16   ar
    16    16    17    1
    17    16    18   ar
    18    18    19    1
    19    19    20    1
    20    19    21    1
    21    19    22    1
    22    18    23   ar
    23    10    24   ar
    24    24    25    1
    25    25    26   ar
    26    26    27   ar
    27    27    28   ar
    28    28    29    1
    29    28    30   ar
    30    30    31   ar
    31    24    32   ar
    32     7    33   ar
    33    33    34   ar
    34    34     4   ar
    35    32     8   ar
    36    23    13   ar
    37    31    25   ar
    38     5    35    1
    39     6    36    1
    40     9    37    1
    41    11    38    1
    42    11    39    1
    43    12    40    1
    44    14    41    1
    45    15    42    1
    46    23    43    1
    47    26    44    1
    48    27    45    1
    49    30    46    1
    50    31    47    1
    51    33    48    1
    52    34    49    1
@<TRIPOS>MOLECULE
22sa23_out
 49 52 0 0 0
SMALL
GASTEIGER

@<TRIPOS>ATOM
      1 O           6.0400   19.3800   26.4330 O.co2   1  UNL1       -0.5446
      2 C           6.2950   20.3370   27.1440 C.2     1  UNL1        0.0717
      3 O           5.5410   21.4520   27.1770 O.co2   1  UNL1       -0.5446
      4 C           7.4510   20.3510   28.0800 C.ar    1  UNL1       -0.0026
      5 C           8.7000   20.8880   27.7430 C.ar    1  UNL1       -0.0509
      6 C           9.7720   20.7960   28.6440 C.ar    1  UNL1       -0.0357
      7 C           9.6090   20.1420   29.8740 C.ar    1  UNL1        0.0654
      8 N          10.7320   19.9390   30.7310 N.ar    1  UNL1       -0.2390
      9 C          11.1920   18.7360   31.2050 C.ar    1  UNL1        0.0365
     10 C          12.3820   18.9780   31.8540 C.ar    1  UNL1        0.0153
     11 C          13.2970   17.9410   32.4140 C.3     1  UNL1        0.0379
     12 N          12.6840   17.1080   33.4440 N.pl3   1  UNL1       -0.3396
     13 C          13.4580   16.5950   34.4820 C.ar    1  UNL1        0.0281
     14 C          13.9920   15.3030   34.4860 C.ar    1  UNL1       -0.0381
     15 C          14.8340   14.8750   35.5160 C.ar    1  UNL1       -0.0241
     16 C          15.1720   15.7460   36.5430 C.ar    1  UNL1        0.1351
     17 F          15.9820   15.3040   37.5120 F       1  UNL1       -0.2049
     18 C          14.6940   17.0500   36.5570 C.ar    1  UNL1        0.0916
     19 C          15.0630   18.0090   37.6450 C.3     1  UNL1        0.4201
     20 F          15.0030   17.5080   38.9080 F       1  UNL1       -0.1658
     21 F          16.3310   18.4890   37.4980 F       1  UNL1       -0.1658
     22 F          14.2570   19.1100   37.6460 F       1  UNL1       -0.1658
     23 C          13.8510   17.4660   35.5090 C.ar    1  UNL1       -0.0264
     24 C          12.5220   20.3990   31.8400 C.ar    1  UNL1        0.0978
     25 C          13.5710   21.2210   32.4680 C.ar    1  UNL1        0.0026
     26 C          14.1790   22.2790   31.7710 C.ar    1  UNL1       -0.0498
     27 C          15.1590   23.0740   32.3740 C.ar    1  UNL1       -0.0258
     28 C          15.5550   22.7970   33.6740 C.ar    1  UNL1        0.1234
     29 F          16.5000   23.5520   34.2490 F       1  UNL1       -0.2055
     30 C          14.9900   21.7440   34.3790 C.ar    1  UNL1       -0.0258
     31 C          14.0000   20.9570   33.7800 C.ar    1  UNL1       -0.0498
     32 N          11.5350   20.9600   31.1180 N.ar    1  UNL1       -0.1661
     33 C           8.3480   19.6320   30.2170 C.ar    1  UNL1       -0.0357
     34 C           7.2780   19.7350   29.3240 C.ar    1  UNL1       -0.0509
     35 H           8.8408   21.3826   26.7706 H       1  UNL1        0.0625
     36 H          10.7448   21.2389   28.3843 H       1  UNL1        0.0639
     37 H          10.7007   17.7588   31.0880 H       1  UNL1        0.0834
     38 H          13.6268   17.2891   31.5917 H       1  UNL1        0.0512
     39 H          14.1330   18.4748   32.8896 H       1  UNL1        0.0512
     40 H          11.7210   16.9090   33.4050 H       1  UNL1        0.1464
     41 H          13.7456   14.6127   33.6658 H       1  UNL1        0.0637
     42 H          15.2288   13.8483   35.5130 H       1  UNL1        0.0647
     43 H          13.4898   18.5049   35.4951 H       1  UNL1        0.0642
     44 H          13.8789   22.4855   30.7331 H       1  UNL1        0.0625
     45 H          15.6115   23.9112   31.8223 H       1  UNL1        0.0646
     46 H          15.3194   21.5284   35.4061 H       1  UNL1        0.0646
     47 H          13.5531   20.1234   34.3417 H       1  UNL1        0.0625
     48 H           8.2007   19.1485   31.1940 H       1  UNL1        0.0639
     49 H           6.2938   19.3292   29.6010 H       1  UNL1        0.0625
@<TRIPOS>UNITY_ATOM_ATTR
3 1
charge -1
@<TRIPOS>BOND
     1     1     2   ar
     2     2     3   ar
     3     2     4    1
     4     4     5   ar
     5     5     6   ar
     6     6     7   ar
     7     7     8    1
     8     8     9   ar
     9     9    10   ar
    10    10    11    1
    11    11    12    1
    12    12    13    1
    13    13    14   ar
    14    14    15   ar
    15    15    16   ar
    16    16    17    1
    17    16    18   ar
    18    18    19    1
    19    19    20    1
    20    19    21    1
    21    19    22    1
    22    18    23   ar
    23    10    24   ar
    24    24    25    1
    25    25    26   ar
    26    26    27   ar
    27    27    28   ar
    28    28    29    1
    29    28    30   ar
    30    30    31   ar
    31    24    32   ar
    32     7    33   ar
    33    33    34   ar
    34    34     4   ar
    35    32     8   ar
    36    23    13   ar
    37    31    25   ar
    38     5    35    1
    39     6    36    1
    40     9    37    1
    41    11    38    1
    42    11    39    1
    43    12    40    1
    44    14    41    1
    45    15    42    1
    46    23    43    1
    47    26    44    1
    48    27    45    1
    49    30    46    1
    50    31    47    1
    51    33    48    1
    52    34    49    1
