
 OpenBabel09272601563D

 49 52  0  0  0  0  0  0  0  0999 V2000
    2.4083    1.6113   -0.9067 O   0  5  0  0  0  0  0  0  0  0  0  0
    1.4936    0.0512    0.4450 O   0  0  0  0  0  0  0  0  0  0  0  0
    2.2458    0.3478   -0.4667 C   0  0  0  0  0  0  0  0  0  0  0  0
   10.6978  -10.9039   -1.2517 C   0  0  0  0  0  0  0  0  0  0  0  0
    7.3144  -10.0183   -3.7451 C   0  0  0  0  0  0  0  0  0  0  0  0
    7.8118  -11.3217   -3.6821 C   0  0  0  0  0  0  0  0  0  0  0  0
    8.8990  -11.6107   -2.8678 C   0  0  0  0  0  0  0  0  0  0  0  0
    9.5131  -10.6151   -2.1205 C   0  0  0  0  0  0  0  0  0  0  0  0
    9.0025   -9.3059   -2.1987 C   0  0  0  0  0  0  0  0  0  0  0  0
    7.8783   -8.9931   -2.9786 C   0  0  0  0  0  0  0  0  0  0  0  0
    7.4836   -7.6600   -3.0610 N   0  0  0  0  0  0  0  0  0  0  0  0
    6.1380   -7.3189   -3.5118 C   0  0  0  0  0  0  0  0  0  0  0  0
    8.1914   -6.0395   -9.7633 F   0  0  0  0  0  0  0  0  0  0  0  0
    7.6511   -6.1698   -6.1795 C   0  0  0  0  0  0  0  0  0  0  0  0
    8.1751   -6.4516   -7.4439 C   0  0  0  0  0  0  0  0  0  0  0  0
    7.6831   -5.7773   -8.5513 C   0  0  0  0  0  0  0  0  0  0  0  0
    6.6778   -4.8296   -8.4158 C   0  0  0  0  0  0  0  0  0  0  0  0
    6.1438   -4.5574   -7.1509 C   0  0  0  0  0  0  0  0  0  0  0  0
    6.6159   -5.2332   -6.0130 C   0  0  0  0  0  0  0  0  0  0  0  0
    5.5746   -3.7336   -4.3681 N   0  0  0  0  0  0  0  0  0  0  0  0
    6.0481   -4.9538   -4.6826 C   0  0  0  0  0  0  0  0  0  0  0  0
    5.8808   -5.8515   -3.5852 C   0  0  0  0  0  0  0  0  0  0  0  0
    5.3971   -5.0666   -2.5619 C   0  0  0  0  0  0  0  0  0  0  0  0
    5.1760   -3.8136   -3.0746 N   0  0  0  0  0  0  0  0  0  0  0  0
    3.4611   -0.5435   -2.5104 C   0  0  0  0  0  0  0  0  0  0  0  0
    4.1959   -1.5667   -3.1281 C   0  0  0  0  0  0  0  0  0  0  0  0
    4.5421   -2.7217   -2.4105 C   0  0  0  0  0  0  0  0  0  0  0  0
    4.1959   -2.8149   -1.0536 C   0  0  0  0  0  0  0  0  0  0  0  0
    3.4750   -1.7891   -0.4374 C   0  0  0  0  0  0  0  0  0  0  0  0
    3.0952   -0.6559   -1.1627 C   0  0  0  0  0  0  0  0  0  0  0  0
   11.0967  -12.2030   -1.2249 F   0  0  0  0  0  0  0  0  0  0  0  0
   11.7953  -10.1866   -1.6265 F   0  0  0  0  0  0  0  0  0  0  0  0
   10.4686  -10.5622    0.0493 F   0  0  0  0  0  0  0  0  0  0  0  0
    9.3509  -12.8701   -2.8319 F   0  0  0  0  0  0  0  0  0  0  0  0
    6.5181   -9.8081   -4.3669 H   0  0  0  0  0  0  0  0  0  0  0  0
    7.3718  -12.0698   -4.2405 H   0  0  0  0  0  0  0  0  0  0  0  0
    9.4683   -8.5540   -1.6671 H   0  0  0  0  0  0  0  0  0  0  0  0
    8.1143   -6.9455   -2.8143 H   0  0  0  0  0  0  0  0  0  0  0  0
    5.4346   -7.7508   -2.8309 H   0  0  0  0  0  0  0  0  0  0  0  0
    6.0359   -7.7029   -4.5052 H   0  0  0  0  0  0  0  0  0  0  0  0
    8.0307   -6.6578   -5.3533 H   0  0  0  0  0  0  0  0  0  0  0  0
    8.9219   -7.1556   -7.5526 H   0  0  0  0  0  0  0  0  0  0  0  0
    6.3251   -4.3271   -9.2453 H   0  0  0  0  0  0  0  0  0  0  0  0
    5.3958   -3.8532   -7.0530 H   0  0  0  0  0  0  0  0  0  0  0  0
    5.2314   -5.3662   -1.5883 H   0  0  0  0  0  0  0  0  0  0  0  0
    3.1896    0.2934   -3.0498 H   0  0  0  0  0  0  0  0  0  0  0  0
    4.4830   -1.4694   -4.1146 H   0  0  0  0  0  0  0  0  0  0  0  0
    4.4753   -3.6453   -0.5083 H   0  0  0  0  0  0  0  0  0  0  0  0
    3.2212   -1.8683    0.5598 H   0  0  0  0  0  0  0  0  0  0  0  0
  3  1  1  0  0  0  0
  3  2  2  0  0  0  0
  4 31  1  0  0  0  0
  4 32  1  0  0  0  0
  4 33  1  0  0  0  0
  5  6  2  0  0  0  0
  5 35  1  0  0  0  0
  6  7  1  0  0  0  0
  6 36  1  0  0  0  0
  7  8  2  0  0  0  0
  7 34  1  0  0  0  0
  8  4  1  0  0  0  0
  8  9  1  0  0  0  0
  9 10  2  0  0  0  0
  9 37  1  0  0  0  0
 10  5  1  0  0  0  0
 11 10  1  0  0  0  0
 11 38  1  0  0  0  0
 12 11  1  0  0  0  0
 12 39  1  0  0  0  0
 12 40  1  0  0  0  0
 14 15  2  0  0  0  0
 14 41  1  0  0  0  0
 15 16  1  0  0  0  0
 15 42  1  0  0  0  0
 16 13  1  0  0  0  0
 16 17  2  0  0  0  0
 17 18  1  0  0  0  0
 17 43  1  0  0  0  0
 18 19  2  0  0  0  0
 18 44  1  0  0  0  0
 19 14  1  0  0  0  0
 20 24  1  0  0  0  0
 21 19  1  0  0  0  0
 21 20  2  0  0  0  0
 22 12  1  0  0  0  0
 22 21  1  0  0  0  0
 23 22  2  0  0  0  0
 23 24  1  0  0  0  0
 23 45  1  0  0  0  0
 25 30  2  0  0  0  0
 25 46  1  0  0  0  0
 26 25  1  0  0  0  0
 26 47  1  0  0  0  0
 27 24  1  0  0  0  0
 27 26  2  0  0  0  0
 28 27  1  0  0  0  0
 28 48  1  0  0  0  0
 29 28  2  0  0  0  0
 29 49  1  0  0  0  0
 30  3  1  0  0  0  0
 30 29  1  0  0  0  0
M  CHG  1   1  -1
M  END
>  <Energy>
67.545

> <PREPARED_BY>
siam chowdhury
Computational and Medicinal Chemistry
[Dr. Alam's Research Team] www.alamresearch.org
Arkansas State University

$$$$
