# siam chowdhury
# Computational and Medicinal Chemistry
# [Dr. Alam's Research Team] www.alamresearch.org
# Arkansas State University
# 22sa23 best docked pose (7L00 FabK)
@<TRIPOS>MOLECULE
22sa23_out
 49 52 0 0 0
SMALL
GASTEIGER

@<TRIPOS>ATOM
      1 O           4.4900   14.9460   31.0090 O.co2   1  UNL1       -0.5446
      2 C           5.3590   14.0910   31.0370 C.2     1  UNL1        0.0717
      3 O           5.2030   12.8640   30.5020 O.co2   1  UNL1       -0.5446
      4 C           6.7000   14.3330   31.6350 C.ar    1  UNL1       -0.0026
      5 C           6.9120   14.4400   33.0150 C.ar    1  UNL1       -0.0509
      6 C           8.1890   14.7500   33.5080 C.ar    1  UNL1       -0.0357
      7 C           9.2520   14.9840   32.6230 C.ar    1  UNL1        0.0654
      8 N          10.5150   15.4230   33.1230 N.ar    1  UNL1       -0.2390
      9 C          11.3120   14.7650   34.0240 C.ar    1  UNL1        0.0365
     10 C          12.5020   15.4540   34.1010 C.ar    1  UNL1        0.0153
     11 C          13.7110   15.0230   34.8620 C.3     1  UNL1        0.0379
     12 N          13.5350   15.0480   36.3110 N.pl3   1  UNL1       -0.3396
     13 C          14.2880   15.9190   37.0940 C.ar    1  UNL1        0.0281
     14 C          15.6080   15.6700   37.4820 C.ar    1  UNL1       -0.0381
     15 C          16.3420   16.6230   38.1930 C.ar    1  UNL1       -0.0241
     16 C          15.7690   17.8500   38.5040 C.ar    1  UNL1        0.1351
     17 F          16.5000   18.7390   39.1850 F       1  UNL1       -0.2049
     18 C          14.4740   18.1520   38.1040 C.ar    1  UNL1        0.0916
     19 C          13.8480   19.4760   38.4130 C.3     1  UNL1        0.4201
     20 F          13.7640   19.7870   39.7330 F       1  UNL1       -0.1658
     21 F          14.5200   20.5100   37.8310 F       1  UNL1       -0.1658
     22 F          12.5730   19.5580   37.9340 F       1  UNL1       -0.1658
     23 C          13.7510   17.1830   37.3840 C.ar    1  UNL1       -0.0264
     24 C          12.3030   16.6150   33.2950 C.ar    1  UNL1        0.0978
     25 C          13.2190   17.7490   33.0840 C.ar    1  UNL1        0.0026
     26 C          12.8950   18.7880   32.1940 C.ar    1  UNL1       -0.0498
     27 C          13.7530   19.8760   32.0100 C.ar    1  UNL1       -0.0258
     28 C          14.9570   19.9180   32.6980 C.ar    1  UNL1        0.1234
     29 F          15.7840   20.9560   32.5150 F       1  UNL1       -0.2055
     30 C          15.3140   18.8960   33.5650 C.ar    1  UNL1       -0.0258
     31 C          14.4490   17.8130   33.7600 C.ar    1  UNL1       -0.0498
     32 N          11.1090   16.5570   32.6760 N.ar    1  UNL1       -0.1661
     33 C           9.0380   14.8470   31.2440 C.ar    1  UNL1       -0.0357
     34 C           7.7690   14.5260   30.7550 C.ar    1  UNL1       -0.0509
     35 H           6.0770   14.2810   33.7132 H       1  UNL1        0.0625
     36 H           8.3571   14.8098   34.5934 H       1  UNL1        0.0639
     37 H          11.0493   13.8545   34.5825 H       1  UNL1        0.0834
     38 H          13.9622   13.9953   34.5608 H       1  UNL1        0.0512
     39 H          14.5114   15.7390   34.6241 H       1  UNL1        0.0512
     40 H          12.8820   14.4470   36.7360 H       1  UNL1        0.1464
     41 H          16.0760   14.7087   37.2234 H       1  UNL1        0.0637
     42 H          17.3730   16.4019   38.5064 H       1  UNL1        0.0647
     43 H          12.7348   17.4232   37.0382 H       1  UNL1        0.0642
     44 H          11.9500   18.7439   31.6328 H       1  UNL1        0.0625
     45 H          13.4761   20.6916   31.3258 H       1  UNL1        0.0646
     46 H          16.2752   18.9365   34.0984 H       1  UNL1        0.0646
     47 H          14.7349   17.0045   34.4489 H       1  UNL1        0.0625
     48 H           9.8735   14.9930   30.5435 H       1  UNL1        0.0639
     49 H           7.6102   14.4246   29.6713 H       1  UNL1        0.0625
@<TRIPOS>UNITY_ATOM_ATTR
3 1
charge -1
@<TRIPOS>BOND
     1     1     2   ar
     2     2     3   ar
     3     2     4    1
     4     4     5   ar
     5     5     6   ar
     6     6     7   ar
     7     7     8    1
     8     8     9   ar
     9     9    10   ar
    10    10    11    1
    11    11    12    1
    12    12    13    1
    13    13    14   ar
    14    14    15   ar
    15    15    16   ar
    16    16    17    1
    17    16    18   ar
    18    18    19    1
    19    19    20    1
    20    19    21    1
    21    19    22    1
    22    18    23   ar
    23    10    24   ar
    24    24    25    1
    25    25    26   ar
    26    26    27   ar
    27    27    28   ar
    28    28    29    1
    29    28    30   ar
    30    30    31   ar
    31    24    32   ar
    32     7    33   ar
    33    33    34   ar
    34    34     4   ar
    35    32     8   ar
    36    23    13   ar
    37    31    25   ar
    38     5    35    1
    39     6    36    1
    40     9    37    1
    41    11    38    1
    42    11    39    1
    43    12    40    1
    44    14    41    1
    45    15    42    1
    46    23    43    1
    47    26    44    1
    48    27    45    1
    49    30    46    1
    50    31    47    1
    51    33    48    1
    52    34    49    1
