@<TRIPOS>MOLECULE
LIG
   49    52     1     0     0
SMALL
bcc


@<TRIPOS>ATOM
      1 O1          15.4480    18.2800    32.9450 o          1 LIG      -0.819300
      2 C1          14.4500    18.8760    33.3170 c          1 LIG       0.908200
      3 O2          14.3130    19.3920    34.5540 o          1 LIG      -0.819300
      4 C2          13.2710    19.0870    32.4430 ca         1 LIG      -0.108600
      5 C3          13.0480    20.3560    31.8900 ca         1 LIG      -0.102500
      6 C4          11.9090    20.5980    31.1120 ca         1 LIG      -0.145500
      7 C5          10.9800    19.5690    30.8970 ca         1 LIG      -0.050200
      8 N1           9.7740    19.8210    30.1830 na         1 LIG       0.216300
      9 C6           8.5210    19.4040    30.5480 cc         1 LIG      -0.131300
     10 C7           7.6330    19.9120    29.6290 cd         1 LIG      -0.300600
     11 C8           6.1560    19.7450    29.6850 c3         1 LIG       0.284100
     12 N2           5.6540    18.7270    28.7650 nu         1 LIG      -0.746600
     13 C9           4.9480    17.6380    29.2750 ca         1 LIG       0.201600
     14 C10          3.5540    17.5460    29.2450 ca         1 LIG      -0.222000
     15 C11          2.9090    16.4030    29.6950 ca         1 LIG       0.165900
     16 F1           1.5730    16.3500    29.6640 f          1 LIG      -0.138900
     17 C12          3.6240    15.3130    30.1720 ca         1 LIG      -0.187000
     18 C13          5.0210    15.3540    30.1780 ca         1 LIG      -0.097300
     19 C14          5.8310    14.1850    30.6740 c3         1 LIG       0.685200
     20 F2           5.6090    13.8850    31.9840 f          1 LIG      -0.238300
     21 F3           5.5790    13.0420    29.9790 f          1 LIG      -0.238300
     22 F4           7.1710    14.4030    30.5640 f          1 LIG      -0.238300
     23 C15          5.6680    16.5140    29.7110 ca         1 LIG      -0.179000
     24 C16          8.4460    20.5890    28.6730 cd         1 LIG       0.352800
     25 C17          8.0230    21.2570    27.4320 ca         1 LIG      -0.113500
     26 C18          7.8200    22.6480    27.3930 ca         1 LIG      -0.089000
     27 C19          7.4290    23.2880    26.2150 ca         1 LIG      -0.172000
     28 C20          7.2140    22.5370    25.0720 ca         1 LIG       0.115900
     29 F5           6.8220    23.1480    23.9460 f          1 LIG      -0.149900
     30 C21          7.3890    21.1580    25.0830 ca         1 LIG      -0.172000
     31 C22          7.7950    20.5190    26.2610 ca         1 LIG      -0.089000
     32 N3           9.7380    20.5620    29.0500 nc         1 LIG      -0.487800
     33 C23         11.2260    18.2950    31.4360 ca         1 LIG      -0.145500
     34 C24         12.3550    18.0580    32.2170 ca         1 LIG      -0.102500
     35 H1          13.7710    21.1650    32.0680 ha         1 LIG       0.163500
     36 H2          11.7430    21.5920    30.6710 ha         1 LIG       0.125000
     37 H3           8.2710    18.7780    31.4170 h4         1 LIG       0.184000
     38 H4           5.8760    19.4590    30.7090 h1         1 LIG       0.050700
     39 H5           5.7080    20.7040    29.3850 h1         1 LIG       0.050700
     40 H6           5.8120    18.8080    27.7980 hn         1 LIG       0.424800
     41 H7           2.9610    18.3890    28.8600 ha         1 LIG       0.158000
     42 H8           3.0950    14.4230    30.5430 ha         1 LIG       0.161000
     43 H9           6.7670    16.5410    29.6870 ha         1 LIG       0.155000
     44 H10          7.9720    23.2420    28.3060 ha         1 LIG       0.152500
     45 H11          7.2930    24.3790    26.1950 ha         1 LIG       0.144500
     46 H12          7.2090    20.5710    24.1700 ha         1 LIG       0.144500
     47 H13          7.9360    19.4280    26.2680 ha         1 LIG       0.152500
     48 H14         10.5190    17.4760    31.2390 ha         1 LIG       0.125000
     49 H15         12.5240    17.0630    32.6540 ha         1 LIG       0.163500
@<TRIPOS>BOND
     1     1     2 1   
     2     2     3 1   
     3     2     4 1   
     4     4     5 ar  
     5     5     6 ar  
     6     5    35 1   
     7     6     7 ar  
     8     6    36 1   
     9     7     8 1   
    10     7    33 ar  
    11     8     9 1   
    12     9    10 2   
    13     9    37 1   
    14    10    11 1   
    15    10    24 1   
    16    11    12 1   
    17    11    38 1   
    18    11    39 1   
    19    12    13 1   
    20    12    40 1   
    21    13    14 ar  
    22    14    15 ar  
    23    14    41 1   
    24    15    16 1   
    25    15    17 ar  
    26    17    18 ar  
    27    17    42 1   
    28    18    19 1   
    29    18    23 ar  
    30    19    20 1   
    31    19    21 1   
    32    19    22 1   
    33    23    13 ar  
    34    23    43 1   
    35    24    25 1   
    36    24    32 2   
    37    25    26 ar  
    38    26    27 ar  
    39    26    44 1   
    40    27    28 ar  
    41    27    45 1   
    42    28    29 1   
    43    28    30 ar  
    44    30    31 ar  
    45    30    46 1   
    46    31    25 ar  
    47    31    47 1   
    48    32     8 1   
    49    33    34 ar  
    50    33    48 1   
    51    34     4 ar  
    52    34    49 1   
@<TRIPOS>SUBSTRUCTURE
     1 LIG         1 TEMP              0 ****  ****    0 ROOT
