# siam chowdhury
# Computational and Medicinal Chemistry
# [Dr. Alam's Research Team] www.alamresearch.org
# Arkansas State University
# 17sa23 best docked pose (7L00 FabK)
@<TRIPOS>MOLECULE
17sa23_out
 46 49 0 0 0
SMALL
GASTEIGER

@<TRIPOS>ATOM
      1 O          16.4520   13.3830   35.6290 O.co2   1  UNL1       -0.5446
      2 C          15.6310   14.2030   35.2560 C.2     1  UNL1        0.0717
      3 O          14.8970   14.0520   34.1330 O.co2   1  UNL1       -0.5446
      4 C          15.3240   15.4380   36.0270 C.ar    1  UNL1       -0.0026
      5 C          14.3680   16.3780   35.6170 C.ar    1  UNL1       -0.0509
      6 C          14.1820   17.5580   36.3530 C.ar    1  UNL1       -0.0357
      7 C          14.9710   17.8210   37.4820 C.ar    1  UNL1        0.0654
      8 N          14.8580   19.0730   38.1580 N.ar    1  UNL1       -0.2390
      9 C          15.7450   20.1180   38.1020 C.ar    1  UNL1        0.0365
     10 C          15.1810   21.1740   38.7850 C.ar    1  UNL1        0.0153
     11 C          15.7480   22.5510   38.8880 C.3     1  UNL1        0.0379
     12 N          15.5030   23.3750   37.7090 N.pl3   1  UNL1       -0.3395
     13 C          14.2270   23.8780   37.4600 C.ar    1  UNL1        0.0303
     14 C          13.7790   24.9670   38.2260 C.ar    1  UNL1       -0.0380
     15 C          12.4860   25.4790   38.0810 C.ar    1  UNL1       -0.0218
     16 C          11.6130   24.8780   37.1860 C.ar    1  UNL1        0.1585
     17 F          10.3710   25.3610   37.0470 F       1  UNL1       -0.2025
     18 C          12.0210   23.7730   36.4540 C.ar    1  UNL1        0.1601
     19 F          11.1710   23.1710   35.6090 F       1  UNL1       -0.2024
     20 C          13.3120   23.2660   36.5950 C.ar    1  UNL1       -0.0027
     21 C          13.9750   20.6470   39.3360 C.ar    1  UNL1        0.0978
     22 C          13.0080   21.3130   40.2250 C.ar    1  UNL1        0.0026
     23 C          11.9070   22.0150   39.7050 C.ar    1  UNL1       -0.0498
     24 C          10.9740   22.6240   40.5480 C.ar    1  UNL1       -0.0258
     25 C          11.1520   22.5550   41.9210 C.ar    1  UNL1        0.1234
     26 F          10.2620   23.1440   42.7320 F       1  UNL1       -0.2055
     27 C          12.2430   21.8910   42.4660 C.ar    1  UNL1       -0.0258
     28 C          13.1700   21.2700   41.6190 C.ar    1  UNL1       -0.0498
     29 N          13.7740   19.3870   38.9080 N.ar    1  UNL1       -0.1661
     30 C          15.9100   16.8660   37.8990 C.ar    1  UNL1       -0.0357
     31 C          16.0850   15.6850   37.1720 C.ar    1  UNL1       -0.0509
     32 H          13.7632   16.1903   34.7175 H       1  UNL1        0.0625
     33 H          13.4130   18.2808   36.0427 H       1  UNL1        0.0639
     34 H          16.7257   20.1139   37.6038 H       1  UNL1        0.0834
     35 H          15.2968   23.0483   39.7593 H       1  UNL1        0.0512
     36 H          16.8385   22.4437   38.9847 H       1  UNL1        0.0512
     37 H          16.2400   23.5750   37.0870 H       1  UNL1        0.1464
     38 H          14.4607   25.4273   38.9563 H       1  UNL1        0.0637
     39 H          12.1642   26.3499   38.6709 H       1  UNL1        0.0648
     40 H          13.6143   22.3773   36.0216 H       1  UNL1        0.0666
     41 H          11.7776   22.0862   38.6150 H       1  UNL1        0.0625
     42 H          10.1067   23.1531   40.1263 H       1  UNL1        0.0646
     43 H          12.3786   21.8528   43.5569 H       1  UNL1        0.0646
     44 H          14.0338   20.7432   42.0505 H       1  UNL1        0.0625
     45 H          16.5113   17.0473   38.8021 H       1  UNL1        0.0639
     46 H          16.8276   14.9446   37.5041 H       1  UNL1        0.0625
@<TRIPOS>UNITY_ATOM_ATTR
3 1
charge -1
@<TRIPOS>BOND
     1     1     2   ar
     2     2     3   ar
     3     2     4    1
     4     4     5   ar
     5     5     6   ar
     6     6     7   ar
     7     7     8    1
     8     8     9   ar
     9     9    10   ar
    10    10    11    1
    11    11    12    1
    12    12    13    1
    13    13    14   ar
    14    14    15   ar
    15    15    16   ar
    16    16    17    1
    17    16    18   ar
    18    18    19    1
    19    18    20   ar
    20    10    21   ar
    21    21    22    1
    22    22    23   ar
    23    23    24   ar
    24    24    25   ar
    25    25    26    1
    26    25    27   ar
    27    27    28   ar
    28    21    29   ar
    29     7    30   ar
    30    30    31   ar
    31    31     4   ar
    32    29     8   ar
    33    20    13   ar
    34    28    22   ar
    35     5    32    1
    36     6    33    1
    37     9    34    1
    38    11    35    1
    39    11    36    1
    40    12    37    1
    41    14    38    1
    42    15    39    1
    43    20    40    1
    44    23    41    1
    45    24    42    1
    46    27    43    1
    47    28    44    1
    48    30    45    1
    49    31    46    1
