
 OpenBabel09252602093D

 46 49  0  0  0  0  0  0  0  0999 V2000
    2.3869    1.7681    0.0821 O   0  5  0  0  0  0  0  0  0  0  0  0
    1.3867   -0.2473    0.2906 O   0  0  0  0  0  0  0  0  0  0  0  0
    2.1764    0.4847   -0.2810 C   0  0  0  0  0  0  0  0  0  0  0  0
    7.3732   -7.6832  -10.6947 F   0  0  0  0  0  0  0  0  0  0  0  0
    8.8114   -6.7235   -6.9681 C   0  0  0  0  0  0  0  0  0  0  0  0
    9.3091   -7.8495   -7.6311 C   0  0  0  0  0  0  0  0  0  0  0  0
    8.8109   -8.1772   -8.8833 C   0  0  0  0  0  0  0  0  0  0  0  0
    7.8367   -7.3852   -9.4717 C   0  0  0  0  0  0  0  0  0  0  0  0
    7.3356   -6.2661   -8.8088 C   0  0  0  0  0  0  0  0  0  0  0  0
    7.7912   -5.9347   -7.5274 C   0  0  0  0  0  0  0  0  0  0  0  0
    7.3933   -4.7857   -6.8436 N   0  0  0  0  0  0  0  0  0  0  0  0
    6.0726   -4.2121   -7.0853 C   0  0  0  0  0  0  0  0  0  0  0  0
    8.4031    0.3385  -11.4048 F   0  0  0  0  0  0  0  0  0  0  0  0
    7.7084   -1.7911   -8.5555 C   0  0  0  0  0  0  0  0  0  0  0  0
    8.2857   -1.3182   -9.7359 C   0  0  0  0  0  0  0  0  0  0  0  0
    7.8450   -0.1201  -10.2775 C   0  0  0  0  0  0  0  0  0  0  0  0
    6.8401    0.6127   -9.6599 C   0  0  0  0  0  0  0  0  0  0  0  0
    6.2515    0.1299   -8.4843 C   0  0  0  0  0  0  0  0  0  0  0  0
    6.6698   -1.0858   -7.9215 C   0  0  0  0  0  0  0  0  0  0  0  0
    5.5614   -0.7657   -5.7528 N   0  0  0  0  0  0  0  0  0  0  0  0
    6.0406   -1.6007   -6.6929 C   0  0  0  0  0  0  0  0  0  0  0  0
    5.8153   -2.9592   -6.3161 C   0  0  0  0  0  0  0  0  0  0  0  0
    5.2800   -2.8856   -5.0485 C   0  0  0  0  0  0  0  0  0  0  0  0
    5.1008   -1.5578   -4.7539 N   0  0  0  0  0  0  0  0  0  0  0  0
    3.4449    0.8708   -2.4478 C   0  0  0  0  0  0  0  0  0  0  0  0
    4.1762    0.3532   -3.5282 C   0  0  0  0  0  0  0  0  0  0  0  0
    4.4591   -1.0192   -3.5994 C   0  0  0  0  0  0  0  0  0  0  0  0
    4.0494   -1.8581   -2.5520 C   0  0  0  0  0  0  0  0  0  0  0  0
    3.3322   -1.3380   -1.4707 C   0  0  0  0  0  0  0  0  0  0  0  0
    3.0199    0.0233   -1.4161 C   0  0  0  0  0  0  0  0  0  0  0  0
    9.2889   -9.2523   -9.5240 F   0  0  0  0  0  0  0  0  0  0  0  0
    9.2016   -6.4659   -6.0480 H   0  0  0  0  0  0  0  0  0  0  0  0
   10.0402   -8.4312   -7.1928 H   0  0  0  0  0  0  0  0  0  0  0  0
    6.6226   -5.6770   -9.2666 H   0  0  0  0  0  0  0  0  0  0  0  0
    8.0033   -4.3615   -6.1977 H   0  0  0  0  0  0  0  0  0  0  0  0
    5.3340   -4.9357   -6.8100 H   0  0  0  0  0  0  0  0  0  0  0  0
    6.0262   -3.9579   -8.1236 H   0  0  0  0  0  0  0  0  0  0  0  0
    8.0494   -2.6728   -8.1415 H   0  0  0  0  0  0  0  0  0  0  0  0
    9.0338   -1.8557  -10.2011 H   0  0  0  0  0  0  0  0  0  0  0  0
    6.5283    1.5090  -10.0653 H   0  0  0  0  0  0  0  0  0  0  0  0
    5.5027    0.6735   -8.0273 H   0  0  0  0  0  0  0  0  0  0  0  0
    5.0552   -3.6832   -4.4334 H   0  0  0  0  0  0  0  0  0  0  0  0
    3.2198    1.8774   -2.4132 H   0  0  0  0  0  0  0  0  0  0  0  0
    4.5075    0.9852   -4.2738 H   0  0  0  0  0  0  0  0  0  0  0  0
    4.2787   -2.8639   -2.5800 H   0  0  0  0  0  0  0  0  0  0  0  0
    3.0311   -1.9637   -0.7073 H   0  0  0  0  0  0  0  0  0  0  0  0
  3  1  1  0  0  0  0
  3  2  2  0  0  0  0
  5  6  2  0  0  0  0
  5 32  1  0  0  0  0
  6  7  1  0  0  0  0
  6 33  1  0  0  0  0
  7  8  2  0  0  0  0
  7 31  1  0  0  0  0
  8  4  1  0  0  0  0
  8  9  1  0  0  0  0
  9 10  2  0  0  0  0
  9 34  1  0  0  0  0
 10  5  1  0  0  0  0
 11 10  1  0  0  0  0
 11 35  1  0  0  0  0
 12 11  1  0  0  0  0
 12 36  1  0  0  0  0
 12 37  1  0  0  0  0
 14 15  2  0  0  0  0
 14 38  1  0  0  0  0
 15 16  1  0  0  0  0
 15 39  1  0  0  0  0
 16 13  1  0  0  0  0
 16 17  2  0  0  0  0
 17 18  1  0  0  0  0
 17 40  1  0  0  0  0
 18 19  2  0  0  0  0
 18 41  1  0  0  0  0
 19 14  1  0  0  0  0
 20 24  1  0  0  0  0
 21 19  1  0  0  0  0
 21 20  2  0  0  0  0
 22 12  1  0  0  0  0
 22 21  1  0  0  0  0
 23 22  2  0  0  0  0
 23 24  1  0  0  0  0
 23 42  1  0  0  0  0
 25 26  2  0  0  0  0
 25 43  1  0  0  0  0
 26 27  1  0  0  0  0
 26 44  1  0  0  0  0
 27 24  1  0  0  0  0
 27 28  2  0  0  0  0
 28 29  1  0  0  0  0
 28 45  1  0  0  0  0
 29 30  2  0  0  0  0
 29 46  1  0  0  0  0
 30  3  1  0  0  0  0
 30 25  1  0  0  0  0
M  CHG  1   1  -1
M  END
>  <Energy>
74.232

> <PREPARED_BY>
siam chowdhury
Computational and Medicinal Chemistry
[Dr. Alam's Research Team] www.alamresearch.org
Arkansas State University

$$$$
