# siam chowdhury
# Computational and Medicinal Chemistry
# [Dr. Alam's Research Team] www.alamresearch.org
# Arkansas State University
# 17sa23 all docked poses (7L00 FabK)
@<TRIPOS>MOLECULE
17sa23_out
 46 49 0 0 0
SMALL
GASTEIGER

@<TRIPOS>ATOM
      1 O          16.4520   13.3830   35.6290 O.co2   1  UNL1       -0.5446
      2 C          15.6310   14.2030   35.2560 C.2     1  UNL1        0.0717
      3 O          14.8970   14.0520   34.1330 O.co2   1  UNL1       -0.5446
      4 C          15.3240   15.4380   36.0270 C.ar    1  UNL1       -0.0026
      5 C          14.3680   16.3780   35.6170 C.ar    1  UNL1       -0.0509
      6 C          14.1820   17.5580   36.3530 C.ar    1  UNL1       -0.0357
      7 C          14.9710   17.8210   37.4820 C.ar    1  UNL1        0.0654
      8 N          14.8580   19.0730   38.1580 N.ar    1  UNL1       -0.2390
      9 C          15.7450   20.1180   38.1020 C.ar    1  UNL1        0.0365
     10 C          15.1810   21.1740   38.7850 C.ar    1  UNL1        0.0153
     11 C          15.7480   22.5510   38.8880 C.3     1  UNL1        0.0379
     12 N          15.5030   23.3750   37.7090 N.pl3   1  UNL1       -0.3395
     13 C          14.2270   23.8780   37.4600 C.ar    1  UNL1        0.0303
     14 C          13.7790   24.9670   38.2260 C.ar    1  UNL1       -0.0380
     15 C          12.4860   25.4790   38.0810 C.ar    1  UNL1       -0.0218
     16 C          11.6130   24.8780   37.1860 C.ar    1  UNL1        0.1585
     17 F          10.3710   25.3610   37.0470 F       1  UNL1       -0.2025
     18 C          12.0210   23.7730   36.4540 C.ar    1  UNL1        0.1601
     19 F          11.1710   23.1710   35.6090 F       1  UNL1       -0.2024
     20 C          13.3120   23.2660   36.5950 C.ar    1  UNL1       -0.0027
     21 C          13.9750   20.6470   39.3360 C.ar    1  UNL1        0.0978
     22 C          13.0080   21.3130   40.2250 C.ar    1  UNL1        0.0026
     23 C          11.9070   22.0150   39.7050 C.ar    1  UNL1       -0.0498
     24 C          10.9740   22.6240   40.5480 C.ar    1  UNL1       -0.0258
     25 C          11.1520   22.5550   41.9210 C.ar    1  UNL1        0.1234
     26 F          10.2620   23.1440   42.7320 F       1  UNL1       -0.2055
     27 C          12.2430   21.8910   42.4660 C.ar    1  UNL1       -0.0258
     28 C          13.1700   21.2700   41.6190 C.ar    1  UNL1       -0.0498
     29 N          13.7740   19.3870   38.9080 N.ar    1  UNL1       -0.1661
     30 C          15.9100   16.8660   37.8990 C.ar    1  UNL1       -0.0357
     31 C          16.0850   15.6850   37.1720 C.ar    1  UNL1       -0.0509
     32 H          13.7632   16.1903   34.7175 H       1  UNL1        0.0625
     33 H          13.4130   18.2808   36.0427 H       1  UNL1        0.0639
     34 H          16.7257   20.1139   37.6038 H       1  UNL1        0.0834
     35 H          15.2968   23.0483   39.7593 H       1  UNL1        0.0512
     36 H          16.8385   22.4437   38.9847 H       1  UNL1        0.0512
     37 H          16.2400   23.5750   37.0870 H       1  UNL1        0.1464
     38 H          14.4607   25.4273   38.9563 H       1  UNL1        0.0637
     39 H          12.1642   26.3499   38.6709 H       1  UNL1        0.0648
     40 H          13.6143   22.3773   36.0216 H       1  UNL1        0.0666
     41 H          11.7776   22.0862   38.6150 H       1  UNL1        0.0625
     42 H          10.1067   23.1531   40.1263 H       1  UNL1        0.0646
     43 H          12.3786   21.8528   43.5569 H       1  UNL1        0.0646
     44 H          14.0338   20.7432   42.0505 H       1  UNL1        0.0625
     45 H          16.5113   17.0473   38.8021 H       1  UNL1        0.0639
     46 H          16.8276   14.9446   37.5041 H       1  UNL1        0.0625
@<TRIPOS>UNITY_ATOM_ATTR
3 1
charge -1
@<TRIPOS>BOND
     1     1     2   ar
     2     2     3   ar
     3     2     4    1
     4     4     5   ar
     5     5     6   ar
     6     6     7   ar
     7     7     8    1
     8     8     9   ar
     9     9    10   ar
    10    10    11    1
    11    11    12    1
    12    12    13    1
    13    13    14   ar
    14    14    15   ar
    15    15    16   ar
    16    16    17    1
    17    16    18   ar
    18    18    19    1
    19    18    20   ar
    20    10    21   ar
    21    21    22    1
    22    22    23   ar
    23    23    24   ar
    24    24    25   ar
    25    25    26    1
    26    25    27   ar
    27    27    28   ar
    28    21    29   ar
    29     7    30   ar
    30    30    31   ar
    31    31     4   ar
    32    29     8   ar
    33    20    13   ar
    34    28    22   ar
    35     5    32    1
    36     6    33    1
    37     9    34    1
    38    11    35    1
    39    11    36    1
    40    12    37    1
    41    14    38    1
    42    15    39    1
    43    20    40    1
    44    23    41    1
    45    24    42    1
    46    27    43    1
    47    28    44    1
    48    30    45    1
    49    31    46    1
@<TRIPOS>MOLECULE
17sa23_out
 46 49 0 0 0
SMALL
GASTEIGER

@<TRIPOS>ATOM
      1 O          15.4360   13.9270   34.4130 O.co2   1  UNL1       -0.5446
      2 C          14.5200   14.7130   34.5790 C.2     1  UNL1        0.0717
      3 O          13.2970   14.5450   34.0330 O.co2   1  UNL1       -0.5446
      4 C          14.6460   15.9200   35.4400 C.ar    1  UNL1       -0.0026
      5 C          14.8780   15.8550   36.8200 C.ar    1  UNL1       -0.0509
      6 C          14.9110   17.0310   37.5840 C.ar    1  UNL1       -0.0357
      7 C          14.6790   18.2760   36.9800 C.ar    1  UNL1        0.0654
      8 N          14.5990   19.4550   37.7790 N.ar    1  UNL1       -0.2390
      9 C          15.5150   20.4750   37.8310 C.ar    1  UNL1        0.0365
     10 C          14.9790   21.4720   38.6170 C.ar    1  UNL1        0.0153
     11 C          15.5850   22.8140   38.8610 C.3     1  UNL1        0.0379
     12 N          14.6010   23.8770   39.0380 N.pl3   1  UNL1       -0.3395
     13 C          14.1190   24.5750   37.9310 C.ar    1  UNL1        0.0303
     14 C          12.9010   25.2630   38.0550 C.ar    1  UNL1       -0.0380
     15 C          12.3230   25.9260   36.9670 C.ar    1  UNL1       -0.0218
     16 C          12.9470   25.8750   35.7300 C.ar    1  UNL1        0.1585
     17 F          12.3940   26.5030   34.6840 F       1  UNL1       -0.2025
     18 C          14.1260   25.1620   35.5760 C.ar    1  UNL1        0.1601
     19 F          14.7180   25.0870   34.3750 F       1  UNL1       -0.2024
     20 C          14.7060   24.5070   36.6610 C.ar    1  UNL1       -0.0027
     21 C          13.7540   20.9270   39.1080 C.ar    1  UNL1        0.0978
     22 C          12.8030   21.5280   40.0580 C.ar    1  UNL1        0.0026
     23 C          11.6670   22.2230   39.6060 C.ar    1  UNL1       -0.0498
     24 C          10.7490   22.7690   40.5060 C.ar    1  UNL1       -0.0258
     25 C          10.9750   22.6440   41.8680 C.ar    1  UNL1        0.1234
     26 F          10.0990   23.1730   42.7330 F       1  UNL1       -0.2055
     27 C          12.1000   21.9860   42.3460 C.ar    1  UNL1       -0.0258
     28 C          13.0130   21.4270   41.4420 C.ar    1  UNL1       -0.0498
     29 N          13.5200   19.7230   38.5540 N.ar    1  UNL1       -0.1661
     30 C          14.4680   18.3350   35.5940 C.ar    1  UNL1       -0.0357
     31 C          14.4490   17.1640   34.8330 C.ar    1  UNL1       -0.0509
     32 H          15.0345   14.8803   37.3052 H       1  UNL1        0.0625
     33 H          15.1199   16.9768   38.6626 H       1  UNL1        0.0639
     34 H          16.4972   20.4936   37.3361 H       1  UNL1        0.0834
     35 H          16.2020   22.7567   39.7699 H       1  UNL1        0.0512
     36 H          16.1761   23.0676   37.9687 H       1  UNL1        0.0512
     37 H          14.2780   24.1030   39.9400 H       1  UNL1        0.1464
     38 H          12.3902   25.2810   39.0290 H       1  UNL1        0.0637
     39 H          11.3824   26.4825   37.0918 H       1  UNL1        0.0648
     40 H          15.6327   23.9317   36.5187 H       1  UNL1        0.0666
     41 H          11.4985   22.3386   38.5251 H       1  UNL1        0.0625
     42 H           9.8550   23.2933   40.1375 H       1  UNL1        0.0646
     43 H          12.2738   21.9039   43.4291 H       1  UNL1        0.0646
     44 H          13.9033   20.9037   41.8209 H       1  UNL1        0.0625
     45 H          14.3168   19.3084   35.1044 H       1  UNL1        0.0639
     46 H          14.2778   17.2209   33.7479 H       1  UNL1        0.0625
@<TRIPOS>UNITY_ATOM_ATTR
3 1
charge -1
@<TRIPOS>BOND
     1     1     2   ar
     2     2     3   ar
     3     2     4    1
     4     4     5   ar
     5     5     6   ar
     6     6     7   ar
     7     7     8    1
     8     8     9   ar
     9     9    10   ar
    10    10    11    1
    11    11    12    1
    12    12    13    1
    13    13    14   ar
    14    14    15   ar
    15    15    16   ar
    16    16    17    1
    17    16    18   ar
    18    18    19    1
    19    18    20   ar
    20    10    21   ar
    21    21    22    1
    22    22    23   ar
    23    23    24   ar
    24    24    25   ar
    25    25    26    1
    26    25    27   ar
    27    27    28   ar
    28    21    29   ar
    29     7    30   ar
    30    30    31   ar
    31    31     4   ar
    32    29     8   ar
    33    20    13   ar
    34    28    22   ar
    35     5    32    1
    36     6    33    1
    37     9    34    1
    38    11    35    1
    39    11    36    1
    40    12    37    1
    41    14    38    1
    42    15    39    1
    43    20    40    1
    44    23    41    1
    45    24    42    1
    46    27    43    1
    47    28    44    1
    48    30    45    1
    49    31    46    1
@<TRIPOS>MOLECULE
17sa23_out
 46 49 0 0 0
SMALL
GASTEIGER

@<TRIPOS>ATOM
      1 O          10.4750   22.9570   42.7300 O.co2   1  UNL1       -0.5446
      2 C          10.4740   21.8220   42.2860 C.2     1  UNL1        0.0717
      3 O           9.5540   20.8970   42.6320 O.co2   1  UNL1       -0.5446
      4 C          11.4660   21.3520   41.2810 C.ar    1  UNL1       -0.0026
      5 C          11.3000   21.5300   39.9010 C.ar    1  UNL1       -0.0509
      6 C          12.2380   20.9960   39.0050 C.ar    1  UNL1       -0.0357
      7 C          13.3300   20.2540   39.4810 C.ar    1  UNL1        0.0654
      8 N          14.2160   19.6160   38.5620 N.ar    1  UNL1       -0.2390
      9 C          15.1550   18.6610   38.8580 C.ar    1  UNL1        0.0365
     10 C          15.6860   18.2210   37.6640 C.ar    1  UNL1        0.0153
     11 C          16.6660   17.1070   37.5010 C.3     1  UNL1        0.0379
     12 N          16.0640   15.7800   37.5880 N.pl3   1  UNL1       -0.3395
     13 C          15.0550   15.4100   36.6990 C.ar    1  UNL1        0.0303
     14 C          15.4260   14.8860   35.4490 C.ar    1  UNL1       -0.0380
     15 C          14.4710   14.5600   34.4820 C.ar    1  UNL1       -0.0218
     16 C          13.1290   14.7910   34.7460 C.ar    1  UNL1        0.1585
     17 F          12.2110   14.4860   33.8190 F       1  UNL1       -0.2025
     18 C          12.7460   15.3520   35.9550 C.ar    1  UNL1        0.1601
     19 F          11.4520   15.6030   36.2030 F       1  UNL1       -0.2024
     20 C          13.6980   15.6710   36.9220 C.ar    1  UNL1       -0.0027
     21 C          15.0850   19.0520   36.6720 C.ar    1  UNL1        0.0978
     22 C          15.3420   19.0770   35.2220 C.ar    1  UNL1        0.0026
     23 C          14.6070   18.2660   34.3400 C.ar    1  UNL1       -0.0498
     24 C          14.8310   18.3100   32.9620 C.ar    1  UNL1       -0.0258
     25 C          15.8130   19.1490   32.4580 C.ar    1  UNL1        0.1234
     26 F          16.0340   19.1870   31.1380 F       1  UNL1       -0.2055
     27 C          16.5740   19.9430   33.3060 C.ar    1  UNL1       -0.0258
     28 C          16.3390   19.9080   34.6860 C.ar    1  UNL1       -0.0498
     29 N          14.1640   19.8600   37.2300 N.ar    1  UNL1       -0.1661
     30 C          13.5010   20.0980   40.8650 C.ar    1  UNL1       -0.0357
     31 C          12.5720   20.6430   41.7560 C.ar    1  UNL1       -0.0509
     32 H          10.4329   22.0893   39.5198 H       1  UNL1        0.0625
     33 H          12.1170   21.1596   37.9240 H       1  UNL1        0.0639
     34 H          15.4332   18.3106   39.8629 H       1  UNL1        0.0834
     35 H          17.1454   17.2072   36.5160 H       1  UNL1        0.0512
     36 H          17.3867   17.1885   38.3280 H       1  UNL1        0.0512
     37 H          16.3700   15.1450   38.2750 H       1  UNL1        0.1464
     38 H          16.4918   14.7289   35.2266 H       1  UNL1        0.0637
     39 H          14.7807   14.1243   33.5206 H       1  UNL1        0.0648
     40 H          13.3800   16.1320   37.8688 H       1  UNL1        0.0666
     41 H          13.8423   17.5850   34.7419 H       1  UNL1        0.0625
     42 H          14.2335   17.6844   32.2826 H       1  UNL1        0.0646
     43 H          17.3579   20.5965   32.8955 H       1  UNL1        0.0646
     44 H          16.9415   20.5379   35.3570 H       1  UNL1        0.0625
     45 H          14.3699   19.5444   41.2505 H       1  UNL1        0.0639
     46 H          12.7129   20.5126   42.8391 H       1  UNL1        0.0625
@<TRIPOS>UNITY_ATOM_ATTR
3 1
charge -1
@<TRIPOS>BOND
     1     1     2   ar
     2     2     3   ar
     3     2     4    1
     4     4     5   ar
     5     5     6   ar
     6     6     7   ar
     7     7     8    1
     8     8     9   ar
     9     9    10   ar
    10    10    11    1
    11    11    12    1
    12    12    13    1
    13    13    14   ar
    14    14    15   ar
    15    15    16   ar
    16    16    17    1
    17    16    18   ar
    18    18    19    1
    19    18    20   ar
    20    10    21   ar
    21    21    22    1
    22    22    23   ar
    23    23    24   ar
    24    24    25   ar
    25    25    26    1
    26    25    27   ar
    27    27    28   ar
    28    21    29   ar
    29     7    30   ar
    30    30    31   ar
    31    31     4   ar
    32    29     8   ar
    33    20    13   ar
    34    28    22   ar
    35     5    32    1
    36     6    33    1
    37     9    34    1
    38    11    35    1
    39    11    36    1
    40    12    37    1
    41    14    38    1
    42    15    39    1
    43    20    40    1
    44    23    41    1
    45    24    42    1
    46    27    43    1
    47    28    44    1
    48    30    45    1
    49    31    46    1
@<TRIPOS>MOLECULE
17sa23_out
 46 49 0 0 0
SMALL
GASTEIGER

@<TRIPOS>ATOM
      1 O           5.4720   14.2080   32.4000 O.co2   1  UNL1       -0.5446
      2 C           6.4480   14.4580   31.7130 C.2     1  UNL1        0.0717
      3 O           6.3800   14.6450   30.3780 O.co2   1  UNL1       -0.5446
      4 C           7.8110   14.6240   32.2870 C.ar    1  UNL1       -0.0026
      5 C           8.0680   14.6080   33.6640 C.ar    1  UNL1       -0.0509
      6 C           9.3670   14.8470   34.1400 C.ar    1  UNL1       -0.0357
      7 C          10.4080   15.1330   33.2450 C.ar    1  UNL1        0.0654
      8 N          11.6990   15.4880   33.7390 N.ar    1  UNL1       -0.2390
      9 C          12.5650   14.6760   34.4260 C.ar    1  UNL1        0.0365
     10 C          13.7440   15.3730   34.5850 C.ar    1  UNL1        0.0153
     11 C          15.0030   14.8360   35.1820 C.3     1  UNL1        0.0379
     12 N          14.9390   14.6660   36.6300 N.pl3   1  UNL1       -0.3395
     13 C          15.2900   15.7200   37.4730 C.ar    1  UNL1        0.0303
     14 C          14.2600   16.4800   38.0550 C.ar    1  UNL1       -0.0380
     15 C          14.5380   17.5930   38.8540 C.ar    1  UNL1       -0.0218
     16 C          15.8550   17.9790   39.0500 C.ar    1  UNL1        0.1585
     17 F          16.1250   19.0480   39.8100 F       1  UNL1       -0.2025
     18 C          16.8830   17.2700   38.4470 C.ar    1  UNL1        0.1601
     19 F          18.1570   17.6560   38.6110 F       1  UNL1       -0.2024
     20 C          16.6070   16.1560   37.6550 C.ar    1  UNL1       -0.0027
     21 C          13.4730   16.6700   34.0550 C.ar    1  UNL1        0.0978
     22 C          14.3530   17.8510   34.0340 C.ar    1  UNL1        0.0026
     23 C          14.6320   18.5690   35.2110 C.ar    1  UNL1       -0.0498
     24 C          15.4890   19.6720   35.1980 C.ar    1  UNL1       -0.0258
     25 C          16.0530   20.0810   33.9990 C.ar    1  UNL1        0.1234
     26 F          16.8690   21.1430   33.9830 F       1  UNL1       -0.2055
     27 C          15.7760   19.4090   32.8160 C.ar    1  UNL1       -0.0258
     28 C          14.9280   18.2950   32.8330 C.ar    1  UNL1       -0.0498
     29 N          12.2440   16.7070   33.5070 N.ar    1  UNL1       -0.1661
     30 C          10.1470   15.1260   31.8660 C.ar    1  UNL1       -0.0357
     31 C           8.8560   14.8760   31.3940 C.ar    1  UNL1       -0.0509
     32 H           7.2512   14.4080   34.3731 H       1  UNL1        0.0625
     33 H           9.5692   14.8097   35.2206 H       1  UNL1        0.0639
     34 H          12.3573   13.6569   34.7840 H       1  UNL1        0.0834
     35 H          15.2137   13.8572   34.7263 H       1  UNL1        0.0512
     36 H          15.7948   15.5722   34.9792 H       1  UNL1        0.0512
     37 H          14.6490   13.8070   37.0120 H       1  UNL1        0.1464
     38 H          13.2131   16.1926   37.8778 H       1  UNL1        0.0637
     39 H          13.7188   18.1576   39.3231 H       1  UNL1        0.0648
     40 H          17.4322   15.6150   37.1689 H       1  UNL1        0.0666
     41 H          14.1674   18.2565   36.1578 H       1  UNL1        0.0625
     42 H          15.7143   20.2110   36.1300 H       1  UNL1        0.0646
     43 H          16.2208   19.7503   31.8696 H       1  UNL1        0.0646
     44 H          14.7102   17.7623   31.8956 H       1  UNL1        0.0625
     45 H          10.9627   15.3182   31.1535 H       1  UNL1        0.0639
     46 H           8.6607   14.8775   30.3115 H       1  UNL1        0.0625
@<TRIPOS>UNITY_ATOM_ATTR
3 1
charge -1
@<TRIPOS>BOND
     1     1     2   ar
     2     2     3   ar
     3     2     4    1
     4     4     5   ar
     5     5     6   ar
     6     6     7   ar
     7     7     8    1
     8     8     9   ar
     9     9    10   ar
    10    10    11    1
    11    11    12    1
    12    12    13    1
    13    13    14   ar
    14    14    15   ar
    15    15    16   ar
    16    16    17    1
    17    16    18   ar
    18    18    19    1
    19    18    20   ar
    20    10    21   ar
    21    21    22    1
    22    22    23   ar
    23    23    24   ar
    24    24    25   ar
    25    25    26    1
    26    25    27   ar
    27    27    28   ar
    28    21    29   ar
    29     7    30   ar
    30    30    31   ar
    31    31     4   ar
    32    29     8   ar
    33    20    13   ar
    34    28    22   ar
    35     5    32    1
    36     6    33    1
    37     9    34    1
    38    11    35    1
    39    11    36    1
    40    12    37    1
    41    14    38    1
    42    15    39    1
    43    20    40    1
    44    23    41    1
    45    24    42    1
    46    27    43    1
    47    28    44    1
    48    30    45    1
    49    31    46    1
@<TRIPOS>MOLECULE
17sa23_out
 46 49 0 0 0
SMALL
GASTEIGER

@<TRIPOS>ATOM
      1 O          12.5370   14.2180   33.7290 O.co2   1  UNL1       -0.5446
      2 C          13.6560   14.5050   34.1180 C.2     1  UNL1        0.0717
      3 O          14.7680   13.8610   33.7040 O.co2   1  UNL1       -0.5446
      4 C          13.9140   15.6260   35.0610 C.ar    1  UNL1       -0.0026
      5 C          13.7680   15.5070   36.4500 C.ar    1  UNL1       -0.0509
      6 C          13.9540   16.6260   37.2760 C.ar    1  UNL1       -0.0357
      7 C          14.2540   17.8770   36.7170 C.ar    1  UNL1        0.0654
      8 N          14.3280   19.0330   37.5500 N.ar    1  UNL1       -0.2390
      9 C          15.3530   19.9430   37.6010 C.ar    1  UNL1        0.0365
     10 C          14.9530   20.9690   38.4300 C.ar    1  UNL1        0.0153
     11 C          15.7110   22.2280   38.6910 C.3     1  UNL1        0.0379
     12 N          14.8640   23.3520   39.0780 N.pl3   1  UNL1       -0.3395
     13 C          14.2230   24.1130   38.1000 C.ar    1  UNL1        0.0303
     14 C          14.7800   24.1480   36.8110 C.ar    1  UNL1       -0.0380
     15 C          14.2300   24.9440   35.8010 C.ar    1  UNL1       -0.0218
     16 C          13.1330   25.7430   36.0850 C.ar    1  UNL1        0.1585
     17 F          12.6070   26.5110   35.1220 F       1  UNL1       -0.2025
     18 C          12.5980   25.7580   37.3640 C.ar    1  UNL1        0.1601
     19 F          11.5540   26.5510   37.6500 F       1  UNL1       -0.2024
     20 C          13.1410   24.9600   38.3700 C.ar    1  UNL1       -0.0027
     21 C          13.6900   20.5480   38.9450 C.ar    1  UNL1        0.0978
     22 C          12.8380   21.2210   39.9400 C.ar    1  UNL1        0.0026
     23 C          13.1520   21.1810   41.3100 C.ar    1  UNL1       -0.0498
     24 C          12.3610   21.8420   42.2520 C.ar    1  UNL1       -0.0258
     25 C          11.2330   22.5300   41.8310 C.ar    1  UNL1        0.1234
     26 F          10.4690   23.1590   42.7330 F       1  UNL1       -0.2055
     27 C          10.8810   22.5660   40.4880 C.ar    1  UNL1       -0.0258
     28 C          11.6840   21.9140   39.5430 C.ar    1  UNL1       -0.0498
     29 N          13.3070   19.3950   38.3660 N.ar    1  UNL1       -0.1661
     30 C          14.4190   17.9850   35.3280 C.ar    1  UNL1       -0.0357
     31 C          14.2460   16.8660   34.5090 C.ar    1  UNL1       -0.0509
     32 H          13.5071   14.5347   36.8933 H       1  UNL1        0.0625
     33 H          13.8641   16.5216   38.3673 H       1  UNL1        0.0639
     34 H          16.3171   19.8678   37.0767 H       1  UNL1        0.0834
     35 H          16.4297   22.0391   39.5020 H       1  UNL1        0.0512
     36 H          16.2058   22.5071   37.7491 H       1  UNL1        0.0512
     37 H          14.7470   23.5740   40.0290 H       1  UNL1        0.1464
     38 H          15.6675   23.5364   36.5912 H       1  UNL1        0.0637
     39 H          14.6639   24.9362   34.7902 H       1  UNL1        0.0648
     40 H          12.7161   24.9960   39.3840 H       1  UNL1        0.0666
     41 H          14.0362   20.6192   41.6456 H       1  UNL1        0.0625
     42 H          12.6302   21.8172   43.3183 H       1  UNL1        0.0646
     43 H           9.9763   23.1037   40.1679 H       1  UNL1        0.0646
     44 H          11.4071   21.9456   38.4789 H       1  UNL1        0.0625
     45 H          14.6856   18.9544   34.8818 H       1  UNL1        0.0639
     46 H          14.3723   16.9621   33.4205 H       1  UNL1        0.0625
@<TRIPOS>UNITY_ATOM_ATTR
3 1
charge -1
@<TRIPOS>BOND
     1     1     2   ar
     2     2     3   ar
     3     2     4    1
     4     4     5   ar
     5     5     6   ar
     6     6     7   ar
     7     7     8    1
     8     8     9   ar
     9     9    10   ar
    10    10    11    1
    11    11    12    1
    12    12    13    1
    13    13    14   ar
    14    14    15   ar
    15    15    16   ar
    16    16    17    1
    17    16    18   ar
    18    18    19    1
    19    18    20   ar
    20    10    21   ar
    21    21    22    1
    22    22    23   ar
    23    23    24   ar
    24    24    25   ar
    25    25    26    1
    26    25    27   ar
    27    27    28   ar
    28    21    29   ar
    29     7    30   ar
    30    30    31   ar
    31    31     4   ar
    32    29     8   ar
    33    20    13   ar
    34    28    22   ar
    35     5    32    1
    36     6    33    1
    37     9    34    1
    38    11    35    1
    39    11    36    1
    40    12    37    1
    41    14    38    1
    42    15    39    1
    43    20    40    1
    44    23    41    1
    45    24    42    1
    46    27    43    1
    47    28    44    1
    48    30    45    1
    49    31    46    1
@<TRIPOS>MOLECULE
17sa23_out
 46 49 0 0 0
SMALL
GASTEIGER

@<TRIPOS>ATOM
      1 O          13.5990   26.4550   38.2840 O.co2   1  UNL1       -0.5446
      2 C          12.9550   25.7380   37.5390 C.2     1  UNL1        0.0717
      3 O          11.9380   26.1920   36.7760 O.co2   1  UNL1       -0.5446
      4 C          13.2540   24.2910   37.3620 C.ar    1  UNL1       -0.0026
      5 C          12.5090   23.2750   37.9750 C.ar    1  UNL1       -0.0509
      6 C          12.8920   21.9330   37.8270 C.ar    1  UNL1       -0.0357
      7 C          14.0400   21.6010   37.0910 C.ar    1  UNL1        0.0654
      8 N          14.4890   20.2480   37.0400 N.ar    1  UNL1       -0.2390
      9 C          14.0510   19.2700   36.1840 C.ar    1  UNL1        0.0365
     10 C          14.8460   18.1620   36.3820 C.ar    1  UNL1        0.0153
     11 C          14.7960   16.8980   35.5890 C.3     1  UNL1        0.0379
     12 N          14.0020   15.8450   36.2140 N.pl3   1  UNL1       -0.3395
     13 C          12.7940   15.4480   35.6430 C.ar    1  UNL1        0.0303
     14 C          12.6550   15.5390   34.2480 C.ar    1  UNL1       -0.0380
     15 C          11.4490   15.2250   33.6130 C.ar    1  UNL1       -0.0218
     16 C          10.3550   14.8480   34.3780 C.ar    1  UNL1        0.1585
     17 F           9.1960   14.5520   33.7750 F       1  UNL1       -0.2025
     18 C          10.4590   14.7980   35.7600 C.ar    1  UNL1        0.1601
     19 F           9.3950   14.4620   36.5050 F       1  UNL1       -0.2024
     20 C          11.6620   15.1050   36.3930 C.ar    1  UNL1       -0.0027
     21 C          15.6920   18.5130   37.4760 C.ar    1  UNL1        0.0978
     22 C          16.6900   17.6780   38.1640 C.ar    1  UNL1        0.0026
     23 C          16.2970   16.6440   39.0340 C.ar    1  UNL1       -0.0498
     24 C          17.2420   15.8330   39.6650 C.ar    1  UNL1       -0.0258
     25 C          18.5920   16.0670   39.4500 C.ar    1  UNL1        0.1234
     26 F          19.5000   15.2940   40.0600 F       1  UNL1       -0.2055
     27 C          19.0130   17.0960   38.6180 C.ar    1  UNL1       -0.0258
     28 C          18.0630   17.9000   37.9750 C.ar    1  UNL1       -0.0498
     29 N          15.4920   19.7960   37.8320 N.ar    1  UNL1       -0.1661
     30 C          14.7690   22.6220   36.4620 C.ar    1  UNL1       -0.0357
     31 C          14.3780   23.9560   36.6010 C.ar    1  UNL1       -0.0509
     32 H          11.6220   23.5298   38.5736 H       1  UNL1        0.0625
     33 H          12.2896   21.1376   38.2900 H       1  UNL1        0.0639
     34 H          13.2181   19.3546   35.4705 H       1  UNL1        0.0834
     35 H          14.3610   17.1228   34.6040 H       1  UNL1        0.0512
     36 H          15.8275   16.5229   35.5162 H       1  UNL1        0.0512
     37 H          14.3200   15.4150   37.0410 H       1  UNL1        0.1464
     38 H          13.5134   15.8643   33.6419 H       1  UNL1        0.0637
     39 H          11.3688   15.2765   32.5171 H       1  UNL1        0.0648
     40 H          11.7230   15.0777   37.4910 H       1  UNL1        0.0666
     41 H          15.2266   16.4718   39.2201 H       1  UNL1        0.0625
     42 H          16.9188   15.0158   40.3267 H       1  UNL1        0.0646
     43 H          20.0868   17.2788   38.4647 H       1  UNL1        0.0646
     44 H          18.3966   18.7141   37.3148 H       1  UNL1        0.0625
     45 H          15.6524   22.3707   35.8567 H       1  UNL1        0.0639
     46 H          14.9591   24.7491   36.1078 H       1  UNL1        0.0625
@<TRIPOS>UNITY_ATOM_ATTR
3 1
charge -1
@<TRIPOS>BOND
     1     1     2   ar
     2     2     3   ar
     3     2     4    1
     4     4     5   ar
     5     5     6   ar
     6     6     7   ar
     7     7     8    1
     8     8     9   ar
     9     9    10   ar
    10    10    11    1
    11    11    12    1
    12    12    13    1
    13    13    14   ar
    14    14    15   ar
    15    15    16   ar
    16    16    17    1
    17    16    18   ar
    18    18    19    1
    19    18    20   ar
    20    10    21   ar
    21    21    22    1
    22    22    23   ar
    23    23    24   ar
    24    24    25   ar
    25    25    26    1
    26    25    27   ar
    27    27    28   ar
    28    21    29   ar
    29     7    30   ar
    30    30    31   ar
    31    31     4   ar
    32    29     8   ar
    33    20    13   ar
    34    28    22   ar
    35     5    32    1
    36     6    33    1
    37     9    34    1
    38    11    35    1
    39    11    36    1
    40    12    37    1
    41    14    38    1
    42    15    39    1
    43    20    40    1
    44    23    41    1
    45    24    42    1
    46    27    43    1
    47    28    44    1
    48    30    45    1
    49    31    46    1
@<TRIPOS>MOLECULE
17sa23_out
 46 49 0 0 0
SMALL
GASTEIGER

@<TRIPOS>ATOM
      1 O          10.5000   23.0830   42.0920 O.co2   1  UNL1       -0.5446
      2 C          10.7340   21.8990   41.9210 C.2     1  UNL1        0.0717
      3 O          10.2630   20.9300   42.7330 O.co2   1  UNL1       -0.5446
      4 C          11.5340   21.3980   40.7700 C.ar    1  UNL1       -0.0026
      5 C          11.3880   21.8900   39.4660 C.ar    1  UNL1       -0.0509
      6 C          12.1210   21.3200   38.4130 C.ar    1  UNL1       -0.0357
      7 C          12.9780   20.2360   38.6520 C.ar    1  UNL1        0.0654
      8 N          13.6310   19.5870   37.5620 N.ar    1  UNL1       -0.2390
      9 C          14.0140   18.2710   37.5020 C.ar    1  UNL1        0.0365
     10 C          14.4760   18.0340   36.2250 C.ar    1  UNL1        0.0153
     11 C          14.8950   16.7100   35.6790 C.3     1  UNL1        0.0379
     12 N          14.0990   15.5930   36.1760 N.pl3   1  UNL1       -0.3395
     13 C          12.8660   15.3000   35.5940 C.ar    1  UNL1        0.0303
     14 C          12.7360   15.4360   34.2020 C.ar    1  UNL1       -0.0380
     15 C          11.5120   15.2270   33.5590 C.ar    1  UNL1       -0.0218
     16 C          10.3920   14.9130   34.3150 C.ar    1  UNL1        0.1585
     17 F           9.2160   14.7170   33.7030 F       1  UNL1       -0.2025
     18 C          10.4890   14.8200   35.6950 C.ar    1  UNL1        0.1601
     19 F           9.4020   14.5440   36.4310 F       1  UNL1       -0.2024
     20 C          11.7110   15.0220   36.3350 C.ar    1  UNL1       -0.0027
     21 C          14.4470   19.3110   35.5870 C.ar    1  UNL1        0.0978
     22 C          14.9050   19.6660   34.2330 C.ar    1  UNL1        0.0026
     23 C          16.2110   20.1390   34.0090 C.ar    1  UNL1       -0.0498
     24 C          16.6560   20.4490   32.7220 C.ar    1  UNL1       -0.0258
     25 C          15.7870   20.3120   31.6500 C.ar    1  UNL1        0.1234
     26 F          16.2090   20.6160   30.4160 F       1  UNL1       -0.2055
     27 C          14.4830   19.8730   31.8410 C.ar    1  UNL1       -0.0258
     28 C          14.0430   19.5490   33.1310 C.ar    1  UNL1       -0.0498
     29 N          13.8900   20.2290   36.3970 N.ar    1  UNL1       -0.1661
     30 C          13.1350   19.7630   39.9640 C.ar    1  UNL1       -0.0357
     31 C          12.4140   20.3410   41.0130 C.ar    1  UNL1       -0.0509
     32 H          10.6984   22.7236   39.2673 H       1  UNL1        0.0625
     33 H          12.0226   21.7257   37.3953 H       1  UNL1        0.0639
     34 H          13.9620   17.5396   38.3219 H       1  UNL1        0.0834
     35 H          14.8036   16.7414   34.5833 H       1  UNL1        0.0512
     36 H          15.9304   16.5391   36.0086 H       1  UNL1        0.0512
     37 H          14.4320   15.0460   36.9230 H       1  UNL1        0.1464
     38 H          13.6169   15.7131   33.6043 H       1  UNL1        0.0637
     39 H          11.4379   15.3107   32.4647 H       1  UNL1        0.0648
     40 H          11.7683   14.9624   37.4319 H       1  UNL1        0.0666
     41 H          16.8933   20.2668   34.8623 H       1  UNL1        0.0625
     42 H          17.6863   20.7986   32.5601 H       1  UNL1        0.0646
     43 H          13.7996   19.7803   30.9840 H       1  UNL1        0.0646
     44 H          13.0111   19.1992   33.2821 H       1  UNL1        0.0625
     45 H          13.8285   18.9338   40.1678 H       1  UNL1        0.0639
     46 H          12.5407   19.9605   42.0373 H       1  UNL1        0.0625
@<TRIPOS>UNITY_ATOM_ATTR
3 1
charge -1
@<TRIPOS>BOND
     1     1     2   ar
     2     2     3   ar
     3     2     4    1
     4     4     5   ar
     5     5     6   ar
     6     6     7   ar
     7     7     8    1
     8     8     9   ar
     9     9    10   ar
    10    10    11    1
    11    11    12    1
    12    12    13    1
    13    13    14   ar
    14    14    15   ar
    15    15    16   ar
    16    16    17    1
    17    16    18   ar
    18    18    19    1
    19    18    20   ar
    20    10    21   ar
    21    21    22    1
    22    22    23   ar
    23    23    24   ar
    24    24    25   ar
    25    25    26    1
    26    25    27   ar
    27    27    28   ar
    28    21    29   ar
    29     7    30   ar
    30    30    31   ar
    31    31     4   ar
    32    29     8   ar
    33    20    13   ar
    34    28    22   ar
    35     5    32    1
    36     6    33    1
    37     9    34    1
    38    11    35    1
    39    11    36    1
    40    12    37    1
    41    14    38    1
    42    15    39    1
    43    20    40    1
    44    23    41    1
    45    24    42    1
    46    27    43    1
    47    28    44    1
    48    30    45    1
    49    31    46    1
@<TRIPOS>MOLECULE
17sa23_out
 46 49 0 0 0
SMALL
GASTEIGER

@<TRIPOS>ATOM
      1 O          15.7820   13.7750   34.8480 O.co2   1  UNL1       -0.5446
      2 C          14.8940   14.6100   34.8440 C.2     1  UNL1        0.0717
      3 O          13.7430   14.4580   34.1540 O.co2   1  UNL1       -0.5446
      4 C          14.9720   15.8670   35.6360 C.ar    1  UNL1       -0.0026
      5 C          15.5810   15.9410   36.8960 C.ar    1  UNL1       -0.0509
      6 C          15.5530   17.1420   37.6210 C.ar    1  UNL1       -0.0357
      7 C          14.8880   18.2650   37.1070 C.ar    1  UNL1        0.0654
      8 N          14.7630   19.4460   37.8980 N.ar    1  UNL1       -0.2390
      9 C          15.6540   20.4870   37.9640 C.ar    1  UNL1        0.0365
     10 C          15.0770   21.4750   38.7330 C.ar    1  UNL1        0.0153
     11 C          15.6460   22.8320   38.9830 C.3     1  UNL1        0.0379
     12 N          15.0910   23.8680   38.1170 N.pl3   1  UNL1       -0.3395
     13 C          14.4020   23.5140   36.9570 C.ar    1  UNL1        0.0303
     14 C          15.1380   23.3310   35.7750 C.ar    1  UNL1       -0.0380
     15 C          14.5070   23.0450   34.5600 C.ar    1  UNL1       -0.0218
     16 C          13.1220   22.9750   34.5120 C.ar    1  UNL1        0.1585
     17 F          12.5130   22.7060   33.3500 F       1  UNL1       -0.2025
     18 C          12.3760   23.1990   35.6590 C.ar    1  UNL1        0.1601
     19 F          11.0360   23.1600   35.6110 F       1  UNL1       -0.2024
     20 C          13.0050   23.4780   36.8720 C.ar    1  UNL1       -0.0027
     21 C          13.8560   20.9030   39.2010 C.ar    1  UNL1        0.0978
     22 C          12.8700   21.4860   40.1280 C.ar    1  UNL1        0.0026
     23 C          13.0520   21.4150   41.5210 C.ar    1  UNL1       -0.0498
     24 C          12.1330   21.9920   42.3990 C.ar    1  UNL1       -0.0258
     25 C          11.0090   22.6240   41.8900 C.ar    1  UNL1        0.1234
     26 F          10.1220   23.1710   42.7320 F       1  UNL1       -0.2055
     27 C          10.7870   22.6880   40.5210 C.ar    1  UNL1       -0.0258
     28 C          11.7170   22.1210   39.6400 C.ar    1  UNL1       -0.0498
     29 N          13.6610   19.6920   38.6490 N.ar    1  UNL1       -0.1661
     30 C          14.2990   18.1900   35.8360 C.ar    1  UNL1       -0.0357
     31 C          14.3390   16.9970   35.1100 C.ar    1  UNL1       -0.0509
     32 H          16.0815   15.0566   37.3171 H       1  UNL1        0.0625
     33 H          16.0553   17.2032   38.5977 H       1  UNL1        0.0639
     34 H          16.6461   20.5262   37.4905 H       1  UNL1        0.0834
     35 H          15.4425   23.1070   40.0284 H       1  UNL1        0.0512
     36 H          16.7231   22.7745   38.7671 H       1  UNL1        0.0512
     37 H          15.2030   24.8170   38.3520 H       1  UNL1        0.1464
     38 H          16.2344   23.4144   35.8054 H       1  UNL1        0.0637
     39 H          15.1031   22.8771   33.6509 H       1  UNL1        0.0648
     40 H          12.3987   23.6713   37.7692 H       1  UNL1        0.0666
     41 H          13.9335   20.8959   41.9253 H       1  UNL1        0.0625
     42 H          12.2992   21.9456   43.4854 H       1  UNL1        0.0646
     43 H           9.8851   23.1816   40.1299 H       1  UNL1        0.0646
     44 H          11.5421   22.1739   38.5553 H       1  UNL1        0.0625
     45 H          13.8035   19.0744   35.4091 H       1  UNL1        0.0639
     46 H          13.8688   16.9465   34.1169 H       1  UNL1        0.0625
@<TRIPOS>UNITY_ATOM_ATTR
3 1
charge -1
@<TRIPOS>BOND
     1     1     2   ar
     2     2     3   ar
     3     2     4    1
     4     4     5   ar
     5     5     6   ar
     6     6     7   ar
     7     7     8    1
     8     8     9   ar
     9     9    10   ar
    10    10    11    1
    11    11    12    1
    12    12    13    1
    13    13    14   ar
    14    14    15   ar
    15    15    16   ar
    16    16    17    1
    17    16    18   ar
    18    18    19    1
    19    18    20   ar
    20    10    21   ar
    21    21    22    1
    22    22    23   ar
    23    23    24   ar
    24    24    25   ar
    25    25    26    1
    26    25    27   ar
    27    27    28   ar
    28    21    29   ar
    29     7    30   ar
    30    30    31   ar
    31    31     4   ar
    32    29     8   ar
    33    20    13   ar
    34    28    22   ar
    35     5    32    1
    36     6    33    1
    37     9    34    1
    38    11    35    1
    39    11    36    1
    40    12    37    1
    41    14    38    1
    42    15    39    1
    43    20    40    1
    44    23    41    1
    45    24    42    1
    46    27    43    1
    47    28    44    1
    48    30    45    1
    49    31    46    1
@<TRIPOS>MOLECULE
17sa23_out
 46 49 0 0 0
SMALL
GASTEIGER

@<TRIPOS>ATOM
      1 O          10.4610   22.8180   42.6080 O.co2   1  UNL1       -0.5446
      2 C          10.4620   21.8420   41.8780 C.2     1  UNL1        0.0717
      3 O           9.6950   20.7540   42.1020 O.co2   1  UNL1       -0.5446
      4 C          11.2830   21.7690   40.6390 C.ar    1  UNL1       -0.0026
      5 C          11.2510   22.7530   39.6410 C.ar    1  UNL1       -0.0509
      6 C          11.9930   22.5830   38.4620 C.ar    1  UNL1       -0.0357
      7 C          12.7460   21.4170   38.2610 C.ar    1  UNL1        0.0654
      8 N          13.4060   21.1980   37.0140 N.ar    1  UNL1       -0.2390
      9 C          14.3730   20.2620   36.7510 C.ar    1  UNL1        0.0365
     10 C          14.6290   20.3020   35.3980 C.ar    1  UNL1        0.0153
     11 C          15.5350   19.3800   34.6520 C.3     1  UNL1        0.0379
     12 N          14.8880   18.6980   33.5360 N.pl3   1  UNL1       -0.3395
     13 C          14.0000   17.6500   33.7760 C.ar    1  UNL1        0.0303
     14 C          14.4210   16.5980   34.6060 C.ar    1  UNL1       -0.0380
     15 C          13.6110   15.4810   34.8350 C.ar    1  UNL1       -0.0218
     16 C          12.3790   15.3930   34.2030 C.ar    1  UNL1        0.1585
     17 F          11.6020   14.3220   34.4150 F       1  UNL1       -0.2025
     18 C          11.9660   16.4000   33.3430 C.ar    1  UNL1        0.1601
     19 F          10.7890   16.3050   32.7080 F       1  UNL1       -0.2024
     20 C          12.7710   17.5160   33.1200 C.ar    1  UNL1       -0.0027
     21 C          13.8410   21.3880   34.9120 C.ar    1  UNL1        0.0978
     22 C          13.7820   21.9350   33.5460 C.ar    1  UNL1        0.0026
     23 C          14.6200   22.9940   33.1510 C.ar    1  UNL1       -0.0498
     24 C          14.5850   23.4940   31.8470 C.ar    1  UNL1       -0.0258
     25 C          13.6920   22.9550   30.9350 C.ar    1  UNL1        0.1234
     26 F          13.6520   23.4380   29.6860 F       1  UNL1       -0.2055
     27 C          12.8330   21.9270   31.3010 C.ar    1  UNL1       -0.0258
     28 C          12.8790   21.4160   32.6050 C.ar    1  UNL1       -0.0498
     29 N          13.0730   21.8900   35.8970 N.ar    1  UNL1       -0.1661
     30 C          12.7910   20.4470   39.2730 C.ar    1  UNL1       -0.0357
     31 C          12.0600   20.6230   40.4510 C.ar    1  UNL1       -0.0509
     32 H          10.6437   23.6592   39.7822 H       1  UNL1        0.0625
     33 H          11.9840   23.3682   37.6917 H       1  UNL1        0.0639
     34 H          14.8557   19.6006   37.4856 H       1  UNL1        0.0834
     35 H          16.3792   19.9654   34.2589 H       1  UNL1        0.0512
     36 H          15.8572   18.6028   35.3606 H       1  UNL1        0.0512
     37 H          15.0790   18.9780   32.6110 H       1  UNL1        0.1464
     38 H          15.4090   16.6538   35.0863 H       1  UNL1        0.0637
     39 H          13.9475   14.6800   35.5097 H       1  UNL1        0.0648
     40 H          12.4373   18.2982   32.4223 H       1  UNL1        0.0666
     41 H          15.3142   23.4356   33.8811 H       1  UNL1        0.0625
     42 H          15.2606   24.3086   31.5469 H       1  UNL1        0.0646
     43 H          12.1201   21.5160   30.5710 H       1  UNL1        0.0646
     44 H          12.2006   20.5998   32.8941 H       1  UNL1        0.0625
     45 H          13.4043   19.5438   39.1389 H       1  UNL1        0.0639
     46 H          12.0966   19.8535   41.2362 H       1  UNL1        0.0625
@<TRIPOS>UNITY_ATOM_ATTR
3 1
charge -1
@<TRIPOS>BOND
     1     1     2   ar
     2     2     3   ar
     3     2     4    1
     4     4     5   ar
     5     5     6   ar
     6     6     7   ar
     7     7     8    1
     8     8     9   ar
     9     9    10   ar
    10    10    11    1
    11    11    12    1
    12    12    13    1
    13    13    14   ar
    14    14    15   ar
    15    15    16   ar
    16    16    17    1
    17    16    18   ar
    18    18    19    1
    19    18    20   ar
    20    10    21   ar
    21    21    22    1
    22    22    23   ar
    23    23    24   ar
    24    24    25   ar
    25    25    26    1
    26    25    27   ar
    27    27    28   ar
    28    21    29   ar
    29     7    30   ar
    30    30    31   ar
    31    31     4   ar
    32    29     8   ar
    33    20    13   ar
    34    28    22   ar
    35     5    32    1
    36     6    33    1
    37     9    34    1
    38    11    35    1
    39    11    36    1
    40    12    37    1
    41    14    38    1
    42    15    39    1
    43    20    40    1
    44    23    41    1
    45    24    42    1
    46    27    43    1
    47    28    44    1
    48    30    45    1
    49    31    46    1
@<TRIPOS>MOLECULE
17sa23_out
 46 49 0 0 0
SMALL
GASTEIGER

@<TRIPOS>ATOM
      1 O           8.2760   14.6350   33.3010 O.co2   1  UNL1       -0.5446
      2 C           9.3300   14.7450   32.6990 C.2     1  UNL1        0.0717
      3 O           9.4520   14.4990   31.3770 O.co2   1  UNL1       -0.5446
      4 C          10.5850   15.2020   33.3540 C.ar    1  UNL1       -0.0026
      5 C          11.0590   14.6640   34.5590 C.ar    1  UNL1       -0.0509
      6 C          12.2090   15.1950   35.1620 C.ar    1  UNL1       -0.0357
      7 C          12.8740   16.2850   34.5820 C.ar    1  UNL1        0.0654
      8 N          13.9740   16.8940   35.2570 N.ar    1  UNL1       -0.2390
      9 C          14.3810   18.2000   35.1510 C.ar    1  UNL1        0.0365
     10 C          15.3850   18.3950   36.0750 C.ar    1  UNL1        0.0153
     11 C          16.0470   19.6970   36.3830 C.3     1  UNL1        0.0379
     12 N          15.1630   20.8500   36.2500 N.pl3   1  UNL1       -0.3395
     13 C          14.5020   21.3570   37.3690 C.ar    1  UNL1        0.0303
     14 C          15.1840   22.2710   38.1890 C.ar    1  UNL1       -0.0380
     15 C          14.6100   22.7660   39.3640 C.ar    1  UNL1       -0.0218
     16 C          13.3550   22.3200   39.7480 C.ar    1  UNL1        0.1585
     17 F          12.8030   22.7870   40.8760 F       1  UNL1       -0.2025
     18 C          12.6850   21.3820   38.9760 C.ar    1  UNL1        0.1601
     19 F          11.4820   20.9270   39.3590 F       1  UNL1       -0.2024
     20 C          13.2540   20.8930   37.8020 C.ar    1  UNL1       -0.0027
     21 C          15.6140   17.1050   36.6410 C.ar    1  UNL1        0.0978
     22 C          16.6310   16.7070   37.6280 C.ar    1  UNL1        0.0026
     23 C          16.2690   16.0680   38.8270 C.ar    1  UNL1       -0.0498
     24 C          17.2350   15.6650   39.7510 C.ar    1  UNL1       -0.0258
     25 C          18.5730   15.9220   39.4930 C.ar    1  UNL1        0.1234
     26 F          19.5000   15.5430   40.3820 F       1  UNL1       -0.2055
     27 C          18.9610   16.5760   38.3310 C.ar    1  UNL1       -0.0258
     28 C          17.9910   16.9670   37.3990 C.ar    1  UNL1       -0.0498
     29 N          14.7200   16.2180   36.1660 N.ar    1  UNL1       -0.1661
     30 C          12.4070   16.8050   33.3650 C.ar    1  UNL1       -0.0357
     31 C          11.2680   16.2670   32.7600 C.ar    1  UNL1       -0.0509
     32 H          10.5285   13.8245   35.0321 H       1  UNL1        0.0625
     33 H          12.5911   14.7541   36.0945 H       1  UNL1        0.0639
     34 H          13.9799   18.9528   34.4565 H       1  UNL1        0.0834
     35 H          16.4184   19.6616   37.4178 H       1  UNL1        0.0512
     36 H          16.8574   19.8269   35.6506 H       1  UNL1        0.0512
     37 H          15.0330   21.2710   35.3700 H       1  UNL1        0.1464
     38 H          16.1917   22.6047   37.9005 H       1  UNL1        0.0637
     39 H          15.1493   23.5024   39.9779 H       1  UNL1        0.0648
     40 H          12.7183   20.1361   37.2104 H       1  UNL1        0.0666
     41 H          15.2061   15.8823   39.0408 H       1  UNL1        0.0625
     42 H          16.9374   15.1483   40.6753 H       1  UNL1        0.0646
     43 H          20.0244   16.7859   38.1434 H       1  UNL1        0.0646
     44 H          18.2986   17.4834   36.4777 H       1  UNL1        0.0625
     45 H          12.9397   17.6394   32.8854 H       1  UNL1        0.0639
     46 H          10.9062   16.6849   31.8090 H       1  UNL1        0.0625
@<TRIPOS>UNITY_ATOM_ATTR
3 1
charge -1
@<TRIPOS>BOND
     1     1     2   ar
     2     2     3   ar
     3     2     4    1
     4     4     5   ar
     5     5     6   ar
     6     6     7   ar
     7     7     8    1
     8     8     9   ar
     9     9    10   ar
    10    10    11    1
    11    11    12    1
    12    12    13    1
    13    13    14   ar
    14    14    15   ar
    15    15    16   ar
    16    16    17    1
    17    16    18   ar
    18    18    19    1
    19    18    20   ar
    20    10    21   ar
    21    21    22    1
    22    22    23   ar
    23    23    24   ar
    24    24    25   ar
    25    25    26    1
    26    25    27   ar
    27    27    28   ar
    28    21    29   ar
    29     7    30   ar
    30    30    31   ar
    31    31     4   ar
    32    29     8   ar
    33    20    13   ar
    34    28    22   ar
    35     5    32    1
    36     6    33    1
    37     9    34    1
    38    11    35    1
    39    11    36    1
    40    12    37    1
    41    14    38    1
    42    15    39    1
    43    20    40    1
    44    23    41    1
    45    24    42    1
    46    27    43    1
    47    28    44    1
    48    30    45    1
    49    31    46    1
@<TRIPOS>MOLECULE
17sa23_out
 46 49 0 0 0
SMALL
GASTEIGER

@<TRIPOS>ATOM
      1 O           6.9160   14.4520   32.8130 O.co2   1  UNL1       -0.5446
      2 C           7.9150   14.6020   32.1320 C.2     1  UNL1        0.0717
      3 O           7.9240   14.4440   30.7910 O.co2   1  UNL1       -0.5446
      4 C           9.2230   15.0170   32.7070 C.ar    1  UNL1       -0.0026
      5 C           9.6430   14.6520   33.9940 C.ar    1  UNL1       -0.0509
      6 C          10.8550   15.1410   34.5040 C.ar    1  UNL1       -0.0357
      7 C          11.6400   16.0200   33.7440 C.ar    1  UNL1        0.0654
      8 N          12.8130   16.6040   34.3100 N.ar    1  UNL1       -0.2390
      9 C          13.5660   17.6170   33.7720 C.ar    1  UNL1        0.0365
     10 C          14.5160   17.9650   34.7080 C.ar    1  UNL1        0.0153
     11 C          15.4840   19.0960   34.5920 C.3     1  UNL1        0.0379
     12 N          14.8710   20.4110   34.7520 N.pl3   1  UNL1       -0.3395
     13 C          14.7200   20.9620   36.0240 C.ar    1  UNL1        0.0303
     14 C          15.8000   20.8800   36.9180 C.ar    1  UNL1       -0.0380
     15 C          15.6960   21.3480   38.2320 C.ar    1  UNL1       -0.0218
     16 C          14.4910   21.8730   38.6740 C.ar    1  UNL1        0.1585
     17 F          14.3860   22.3170   39.9330 F       1  UNL1       -0.2025
     18 C          13.4000   21.9200   37.8200 C.ar    1  UNL1        0.1601
     19 F          12.2250   22.4010   38.2530 F       1  UNL1       -0.2024
     20 C          13.5040   21.4590   36.5090 C.ar    1  UNL1       -0.0027
     21 C          14.3440   17.0240   35.7670 C.ar    1  UNL1        0.0978
     22 C          15.1420   16.8760   36.9960 C.ar    1  UNL1        0.0026
     23 C          14.9040   17.6890   38.1190 C.ar    1  UNL1       -0.0498
     24 C          15.6410   17.5300   39.2950 C.ar    1  UNL1       -0.0258
     25 C          16.6400   16.5700   39.3470 C.ar    1  UNL1        0.1234
     26 F          17.3520   16.4210   40.4720 F       1  UNL1       -0.2055
     27 C          16.9160   15.7690   38.2470 C.ar    1  UNL1       -0.0258
     28 C          16.1670   15.9200   37.0730 C.ar    1  UNL1       -0.0498
     29 N          13.2790   16.2370   35.5280 N.ar    1  UNL1       -0.1661
     30 C          11.2250   16.3640   32.4480 C.ar    1  UNL1       -0.0357
     31 C          10.0230   15.8660   31.9380 C.ar    1  UNL1       -0.0509
     32 H           9.0211   13.9811   34.6048 H       1  UNL1        0.0625
     33 H          11.1912   14.8333   35.5051 H       1  UNL1        0.0639
     34 H          13.4356   18.0681   32.7773 H       1  UNL1        0.0834
     35 H          16.2542   18.9750   35.3680 H       1  UNL1        0.0512
     36 H          15.9030   19.0579   33.5756 H       1  UNL1        0.0512
     37 H          14.5630   20.9090   33.9600 H       1  UNL1        0.1464
     38 H          16.7481   20.4382   36.5775 H       1  UNL1        0.0637
     39 H          16.5621   21.3000   38.9085 H       1  UNL1        0.0648
     40 H          12.6238   21.4857   35.8498 H       1  UNL1        0.0666
     41 H          14.1242   18.4633   38.0703 H       1  UNL1        0.0625
     42 H          15.4307   18.1605   40.1715 H       1  UNL1        0.0646
     43 H          17.7193   15.0192   38.2972 H       1  UNL1        0.0646
     44 H          16.3842   15.2831   36.2028 H       1  UNL1        0.0625
     45 H          11.8484   17.0282   31.8314 H       1  UNL1        0.0639
     46 H           9.7041   16.1447   30.9228 H       1  UNL1        0.0625
@<TRIPOS>UNITY_ATOM_ATTR
3 1
charge -1
@<TRIPOS>BOND
     1     1     2   ar
     2     2     3   ar
     3     2     4    1
     4     4     5   ar
     5     5     6   ar
     6     6     7   ar
     7     7     8    1
     8     8     9   ar
     9     9    10   ar
    10    10    11    1
    11    11    12    1
    12    12    13    1
    13    13    14   ar
    14    14    15   ar
    15    15    16   ar
    16    16    17    1
    17    16    18   ar
    18    18    19    1
    19    18    20   ar
    20    10    21   ar
    21    21    22    1
    22    22    23   ar
    23    23    24   ar
    24    24    25   ar
    25    25    26    1
    26    25    27   ar
    27    27    28   ar
    28    21    29   ar
    29     7    30   ar
    30    30    31   ar
    31    31     4   ar
    32    29     8   ar
    33    20    13   ar
    34    28    22   ar
    35     5    32    1
    36     6    33    1
    37     9    34    1
    38    11    35    1
    39    11    36    1
    40    12    37    1
    41    14    38    1
    42    15    39    1
    43    20    40    1
    44    23    41    1
    45    24    42    1
    46    27    43    1
    47    28    44    1
    48    30    45    1
    49    31    46    1
@<TRIPOS>MOLECULE
17sa23_out
 46 49 0 0 0
SMALL
GASTEIGER

@<TRIPOS>ATOM
      1 O          13.0660   22.7980   30.0150 O.co2   1  UNL1       -0.5446
      2 C          14.0600   22.3140   30.5290 C.2     1  UNL1        0.0717
      3 O          15.1820   22.0260   29.8350 O.co2   1  UNL1       -0.5446
      4 C          14.1520   22.0310   31.9870 C.ar    1  UNL1       -0.0026
      5 C          15.0160   21.0670   32.5250 C.ar    1  UNL1       -0.0509
      6 C          14.9970   20.7970   33.9020 C.ar    1  UNL1       -0.0357
      7 C          14.0950   21.4660   34.7430 C.ar    1  UNL1        0.0654
      8 N          14.0000   21.1060   36.1210 N.ar    1  UNL1       -0.2390
      9 C          14.7040   20.1170   36.7600 C.ar    1  UNL1        0.0365
     10 C          14.4110   20.2040   38.1040 C.ar    1  UNL1        0.0153
     11 C          15.0350   19.3930   39.1900 C.3     1  UNL1        0.0379
     12 N          14.4500   18.0650   39.3400 N.pl3   1  UNL1       -0.3395
     13 C          14.7710   17.0530   38.4360 C.ar    1  UNL1        0.0303
     14 C          16.1220   16.7020   38.2800 C.ar    1  UNL1       -0.0380
     15 C          16.5240   15.7470   37.3420 C.ar    1  UNL1       -0.0218
     16 C          15.5740   15.1560   36.5220 C.ar    1  UNL1        0.1585
     17 F          15.9550   14.2440   35.6180 F       1  UNL1       -0.2025
     18 C          14.2410   15.5230   36.6290 C.ar    1  UNL1        0.1601
     19 F          13.3230   14.9750   35.8180 F       1  UNL1       -0.2024
     20 C          13.8390   16.4710   37.5680 C.ar    1  UNL1       -0.0027
     21 C          13.4140   21.2220   38.1920 C.ar    1  UNL1        0.0978
     22 C          12.6790   21.6820   39.3820 C.ar    1  UNL1        0.0026
     23 C          11.4950   22.4310   39.2610 C.ar    1  UNL1       -0.0498
     24 C          10.7820   22.8440   40.3890 C.ar    1  UNL1       -0.0258
     25 C          11.2630   22.5280   41.6500 C.ar    1  UNL1        0.1234
     26 F          10.5850   22.9290   42.7330 F       1  UNL1       -0.2055
     27 C          12.4430   21.8120   41.8040 C.ar    1  UNL1       -0.0258
     28 C          13.1490   21.3880   40.6720 C.ar    1  UNL1       -0.0498
     29 N          13.2110   21.7870   36.9870 N.ar    1  UNL1       -0.1661
     30 C          13.2490   22.4440   34.2000 C.ar    1  UNL1       -0.0357
     31 C          13.2780   22.7200   32.8310 C.ar    1  UNL1       -0.0509
     32 H          15.7092   20.5219   31.8675 H       1  UNL1        0.0625
     33 H          15.6929   20.0570   34.3242 H       1  UNL1        0.0639
     34 H          15.3785   19.3883   36.2866 H       1  UNL1        0.0834
     35 H          16.1057   19.2775   38.9658 H       1  UNL1        0.0512
     36 H          14.8595   19.9301   40.1338 H       1  UNL1        0.0512
     37 H          13.8270   17.8840   40.0810 H       1  UNL1        0.1464
     38 H          16.8805   17.1895   38.9100 H       1  UNL1        0.0637
     39 H          17.5841   15.4666   37.2548 H       1  UNL1        0.0648
     40 H          12.7806   16.7646   37.6278 H       1  UNL1        0.0666
     41 H          11.1236   22.6964   38.2602 H       1  UNL1        0.0625
     42 H           9.8480   23.4144   40.2776 H       1  UNL1        0.0646
     43 H          12.8210   21.5792   42.8105 H       1  UNL1        0.0646
     44 H          14.0820   20.8184   40.7944 H       1  UNL1        0.0625
     45 H          12.5594   22.9963   34.8553 H       1  UNL1        0.0639
     46 H          12.6073   23.4859   32.4144 H       1  UNL1        0.0625
@<TRIPOS>UNITY_ATOM_ATTR
3 1
charge -1
@<TRIPOS>BOND
     1     1     2   ar
     2     2     3   ar
     3     2     4    1
     4     4     5   ar
     5     5     6   ar
     6     6     7   ar
     7     7     8    1
     8     8     9   ar
     9     9    10   ar
    10    10    11    1
    11    11    12    1
    12    12    13    1
    13    13    14   ar
    14    14    15   ar
    15    15    16   ar
    16    16    17    1
    17    16    18   ar
    18    18    19    1
    19    18    20   ar
    20    10    21   ar
    21    21    22    1
    22    22    23   ar
    23    23    24   ar
    24    24    25   ar
    25    25    26    1
    26    25    27   ar
    27    27    28   ar
    28    21    29   ar
    29     7    30   ar
    30    30    31   ar
    31    31     4   ar
    32    29     8   ar
    33    20    13   ar
    34    28    22   ar
    35     5    32    1
    36     6    33    1
    37     9    34    1
    38    11    35    1
    39    11    36    1
    40    12    37    1
    41    14    38    1
    42    15    39    1
    43    20    40    1
    44    23    41    1
    45    24    42    1
    46    27    43    1
    47    28    44    1
    48    30    45    1
    49    31    46    1
@<TRIPOS>MOLECULE
17sa23_out
 46 49 0 0 0
SMALL
GASTEIGER

@<TRIPOS>ATOM
      1 O           9.4880   20.8450   41.9950 O.co2   1  UNL1       -0.5446
      2 C          10.6570   21.1350   41.8050 C.2     1  UNL1        0.0717
      3 O          11.6300   20.9020   42.7110 O.co2   1  UNL1       -0.5446
      4 C          11.1360   21.7390   40.5330 C.ar    1  UNL1       -0.0026
      5 C          10.7820   23.0300   40.1180 C.ar    1  UNL1       -0.0509
      6 C          11.2090   23.5100   38.8700 C.ar    1  UNL1       -0.0357
      7 C          11.9640   22.6920   38.0170 C.ar    1  UNL1        0.0654
      8 N          12.2960   23.1420   36.7040 N.ar    1  UNL1       -0.2390
      9 C          12.1480   24.4130   36.2110 C.ar    1  UNL1        0.0365
     10 C          12.7200   24.4390   34.9580 C.ar    1  UNL1        0.0153
     11 C          12.8840   25.6470   34.0960 C.3     1  UNL1        0.0379
     12 N          14.2720   26.0720   33.9410 N.pl3   1  UNL1       -0.3395
     13 C          14.9730   25.7590   32.7780 C.ar    1  UNL1        0.0303
     14 C          14.2490   25.6010   31.5840 C.ar    1  UNL1       -0.0380
     15 C          14.8770   25.2180   30.3950 C.ar    1  UNL1       -0.0218
     16 C          16.2380   24.9550   30.3990 C.ar    1  UNL1        0.1585
     17 F          16.8430   24.5830   29.2620 F       1  UNL1       -0.2025
     18 C          16.9620   25.0600   31.5760 C.ar    1  UNL1        0.1601
     19 F          18.2740   24.7780   31.5900 F       1  UNL1       -0.2024
     20 C          16.3380   25.4470   32.7610 C.ar    1  UNL1       -0.0027
     21 C          13.1050   23.0870   34.7070 C.ar    1  UNL1        0.0978
     22 C          13.6960   22.5170   33.4850 C.ar    1  UNL1        0.0026
     23 C          12.9180   22.3020   32.3330 C.ar    1  UNL1       -0.0498
     24 C          13.4850   21.7880   31.1650 C.ar    1  UNL1       -0.0258
     25 C          14.8320   21.4610   31.1480 C.ar    1  UNL1        0.1234
     26 F          15.3750   20.9610   30.0310 F       1  UNL1       -0.2055
     27 C          15.6210   21.6360   32.2770 C.ar    1  UNL1       -0.0258
     28 C          15.0550   22.1650   33.4440 C.ar    1  UNL1       -0.0498
     29 N          12.8810   22.3260   35.7940 N.ar    1  UNL1       -0.1661
     30 C          12.3320   21.4090   38.4480 C.ar    1  UNL1       -0.0357
     31 C          11.9170   20.9370   39.6960 C.ar    1  UNL1       -0.0509
     32 H          10.1686   23.6680   40.7712 H       1  UNL1        0.0625
     33 H          10.9501   24.5330   38.5595 H       1  UNL1        0.0639
     34 H          11.6618   25.2569   36.7222 H       1  UNL1        0.0834
     35 H          12.4765   25.4208   33.0996 H       1  UNL1        0.0512
     36 H          12.3484   26.4707   34.5907 H       1  UNL1        0.0512
     37 H          14.7130   26.5800   34.6600 H       1  UNL1        0.1464
     38 H          13.1641   25.7827   31.5848 H       1  UNL1        0.0637
     39 H          14.2965   25.1262   29.4651 H       1  UNL1        0.0648
     40 H          16.9229   25.5078   33.6906 H       1  UNL1        0.0666
     41 H          11.8449   22.5428   32.3525 H       1  UNL1        0.0625
     42 H          12.8679   21.6438   30.2659 H       1  UNL1        0.0646
     43 H          16.6857   21.3605   32.2551 H       1  UNL1        0.0646
     44 H          15.6812   22.3061   34.3373 H       1  UNL1        0.0625
     45 H          12.9507   20.7708   37.8000 H       1  UNL1        0.0639
     46 H          12.2070   19.9272   40.0220 H       1  UNL1        0.0625
@<TRIPOS>UNITY_ATOM_ATTR
3 1
charge -1
@<TRIPOS>BOND
     1     1     2   ar
     2     2     3   ar
     3     2     4    1
     4     4     5   ar
     5     5     6   ar
     6     6     7   ar
     7     7     8    1
     8     8     9   ar
     9     9    10   ar
    10    10    11    1
    11    11    12    1
    12    12    13    1
    13    13    14   ar
    14    14    15   ar
    15    15    16   ar
    16    16    17    1
    17    16    18   ar
    18    18    19    1
    19    18    20   ar
    20    10    21   ar
    21    21    22    1
    22    22    23   ar
    23    23    24   ar
    24    24    25   ar
    25    25    26    1
    26    25    27   ar
    27    27    28   ar
    28    21    29   ar
    29     7    30   ar
    30    30    31   ar
    31    31     4   ar
    32    29     8   ar
    33    20    13   ar
    34    28    22   ar
    35     5    32    1
    36     6    33    1
    37     9    34    1
    38    11    35    1
    39    11    36    1
    40    12    37    1
    41    14    38    1
    42    15    39    1
    43    20    40    1
    44    23    41    1
    45    24    42    1
    46    27    43    1
    47    28    44    1
    48    30    45    1
    49    31    46    1
@<TRIPOS>MOLECULE
17sa23_out
 46 49 0 0 0
SMALL
GASTEIGER

@<TRIPOS>ATOM
      1 O          17.6230   15.2340   40.4530 O.co2   1  UNL1       -0.5446
      2 C          18.2400   15.9660   39.6990 C.2     1  UNL1        0.0717
      3 O          19.4830   15.6860   39.2530 O.co2   1  UNL1       -0.5446
      4 C          17.6650   17.2280   39.1590 C.ar    1  UNL1       -0.0026
      5 C          16.4680   17.7860   39.6290 C.ar    1  UNL1       -0.0509
      6 C          15.9430   18.9380   39.0230 C.ar    1  UNL1       -0.0357
      7 C          16.5940   19.5190   37.9250 C.ar    1  UNL1        0.0654
      8 N          15.9960   20.6200   37.2400 N.ar    1  UNL1       -0.2390
      9 C          15.7590   21.8710   37.7510 C.ar    1  UNL1        0.0365
     10 C          15.3020   22.6590   36.7150 C.ar    1  UNL1        0.0153
     11 C          15.0210   24.1230   36.7890 C.3     1  UNL1        0.0379
     12 N          14.3830   24.5340   38.0360 N.pl3   1  UNL1       -0.3395
     13 C          13.0210   24.3080   38.2320 C.ar    1  UNL1        0.0303
     14 C          12.1060   25.1860   37.6270 C.ar    1  UNL1       -0.0380
     15 C          10.7290   25.0620   37.8370 C.ar    1  UNL1       -0.0218
     16 C          10.2560   24.0750   38.6880 C.ar    1  UNL1        0.1585
     17 F           8.9380   23.9560   38.8960 F       1  UNL1       -0.2025
     18 C          11.1470   23.2280   39.3320 C.ar    1  UNL1        0.1601
     19 F          10.6950   22.2900   40.1770 F       1  UNL1       -0.2024
     20 C          12.5190   23.3470   39.1180 C.ar    1  UNL1       -0.0027
     21 C          15.1820   21.7670   35.6080 C.ar    1  UNL1        0.0978
     22 C          14.6640   22.0510   34.2580 C.ar    1  UNL1        0.0026
     23 C          13.2830   22.1610   34.0190 C.ar    1  UNL1       -0.0498
     24 C          12.7920   22.4580   32.7450 C.ar    1  UNL1       -0.0258
     25 C          13.6820   22.6220   31.6950 C.ar    1  UNL1        0.1234
     26 F          13.2130   22.9000   30.4710 F       1  UNL1       -0.2055
     27 C          15.0500   22.4940   31.8930 C.ar    1  UNL1       -0.0258
     28 C          15.5410   22.2100   33.1740 C.ar    1  UNL1       -0.0498
     29 N          15.6490   20.5470   35.9320 N.ar    1  UNL1       -0.1661
     30 C          17.8020   18.9680   37.4730 C.ar    1  UNL1       -0.0357
     31 C          18.3300   17.8280   38.0860 C.ar    1  UNL1       -0.0509
     32 H          15.9395   17.3204   40.4739 H       1  UNL1        0.0625
     33 H          15.0169   19.3871   39.4110 H       1  UNL1        0.0639
     34 H          15.9062   22.1873   38.7942 H       1  UNL1        0.0834
     35 H          15.9731   24.6651   36.6905 H       1  UNL1        0.0512
     36 H          14.3192   24.3580   35.9752 H       1  UNL1        0.0512
     37 H          14.9150   24.9730   38.7390 H       1  UNL1        0.1464
     38 H          12.4808   25.9881   36.9742 H       1  UNL1        0.0637
     39 H          10.0273   25.7416   37.3314 H       1  UNL1        0.0648
     40 H          13.2136   22.6801   39.6498 H       1  UNL1        0.0666
     41 H          12.5770   22.0107   34.8490 H       1  UNL1        0.0625
     42 H          11.7098   22.5607   32.5769 H       1  UNL1        0.0646
     43 H          15.7447   22.6149   31.0487 H       1  UNL1        0.0646
     44 H          16.6251   22.1106   33.3318 H       1  UNL1        0.0625
     45 H          18.3363   19.4350   36.6325 H       1  UNL1        0.0639
     46 H          19.2755   17.4001   37.7213 H       1  UNL1        0.0625
@<TRIPOS>UNITY_ATOM_ATTR
3 1
charge -1
@<TRIPOS>BOND
     1     1     2   ar
     2     2     3   ar
     3     2     4    1
     4     4     5   ar
     5     5     6   ar
     6     6     7   ar
     7     7     8    1
     8     8     9   ar
     9     9    10   ar
    10    10    11    1
    11    11    12    1
    12    12    13    1
    13    13    14   ar
    14    14    15   ar
    15    15    16   ar
    16    16    17    1
    17    16    18   ar
    18    18    19    1
    19    18    20   ar
    20    10    21   ar
    21    21    22    1
    22    22    23   ar
    23    23    24   ar
    24    24    25   ar
    25    25    26    1
    26    25    27   ar
    27    27    28   ar
    28    21    29   ar
    29     7    30   ar
    30    30    31   ar
    31    31     4   ar
    32    29     8   ar
    33    20    13   ar
    34    28    22   ar
    35     5    32    1
    36     6    33    1
    37     9    34    1
    38    11    35    1
    39    11    36    1
    40    12    37    1
    41    14    38    1
    42    15    39    1
    43    20    40    1
    44    23    41    1
    45    24    42    1
    46    27    43    1
    47    28    44    1
    48    30    45    1
    49    31    46    1
@<TRIPOS>MOLECULE
17sa23_out
 46 49 0 0 0
SMALL
GASTEIGER

@<TRIPOS>ATOM
      1 O          19.4870   20.5930   29.7360 O.co2   1  UNL1       -0.5446
      2 C          18.5230   21.3330   29.8340 C.2     1  UNL1        0.0717
      3 O          17.8390   21.7970   28.7670 O.co2   1  UNL1       -0.5446
      4 C          17.9760   21.7660   31.1480 C.ar    1  UNL1       -0.0026
      5 C          18.7160   21.7230   32.3370 C.ar    1  UNL1       -0.0509
      6 C          18.1140   22.0750   33.5550 C.ar    1  UNL1       -0.0357
      7 C          16.7600   22.4420   33.5950 C.ar    1  UNL1        0.0654
      8 N          16.1230   22.6880   34.8480 N.ar    1  UNL1       -0.2390
      9 C          16.5010   22.1940   36.0710 C.ar    1  UNL1        0.0365
     10 C          15.7020   22.7910   37.0220 C.ar    1  UNL1        0.0153
     11 C          15.8340   22.6310   38.5000 C.3     1  UNL1        0.0379
     12 N          15.2570   21.3910   39.0090 N.pl3   1  UNL1       -0.3395
     13 C          14.0650   21.4190   39.7320 C.ar    1  UNL1        0.0303
     14 C          13.7350   20.3020   40.5180 C.ar    1  UNL1       -0.0380
     15 C          12.5240   20.2310   41.2130 C.ar    1  UNL1       -0.0218
     16 C          11.6110   21.2690   41.0970 C.ar    1  UNL1        0.1585
     17 F          10.4470   21.2030   41.7560 F       1  UNL1       -0.2025
     18 C          11.8980   22.3580   40.2880 C.ar    1  UNL1        0.1601
     19 F          11.0060   23.3510   40.1510 F       1  UNL1       -0.2024
     20 C          13.1080   22.4320   39.6000 C.ar    1  UNL1       -0.0027
     21 C          14.7670   23.5680   36.2740 C.ar    1  UNL1        0.0978
     22 C          13.6290   24.3580   36.7730 C.ar    1  UNL1        0.0026
     23 C          12.3040   23.9760   36.4970 C.ar    1  UNL1       -0.0498
     24 C          11.2230   24.7080   36.9930 C.ar    1  UNL1       -0.0258
     25 C          11.4610   25.8440   37.7500 C.ar    1  UNL1        0.1234
     26 F          10.4260   26.5520   38.2220 F       1  UNL1       -0.2055
     27 C          12.7580   26.2630   38.0180 C.ar    1  UNL1       -0.0258
     28 C          13.8410   25.5190   37.5310 C.ar    1  UNL1       -0.0498
     29 N          15.0660   23.5290   34.9620 N.ar    1  UNL1       -0.1661
     30 C          16.0310   22.5040   32.3980 C.ar    1  UNL1       -0.0357
     31 C          16.6370   22.1650   31.1850 C.ar    1  UNL1       -0.0509
     32 H          19.7711   21.4127   32.3158 H       1  UNL1        0.0625
     33 H          18.7059   22.0632   34.4821 H       1  UNL1        0.0639
     34 H          17.2958   21.4569   36.2580 H       1  UNL1        0.0834
     35 H          16.9034   22.6478   38.7571 H       1  UNL1        0.0512
     36 H          15.2781   23.4589   38.9642 H       1  UNL1        0.0512
     37 H          15.7110   20.5330   38.8430 H       1  UNL1        0.1464
     38 H          14.4452   19.4649   40.5880 H       1  UNL1        0.0637
     39 H          12.2973   19.3603   41.8458 H       1  UNL1        0.0648
     40 H          13.3126   23.2938   38.9478 H       1  UNL1        0.0666
     41 H          12.1158   23.0852   35.8797 H       1  UNL1        0.0625
     42 H          10.1921   24.3857   36.7847 H       1  UNL1        0.0646
     43 H          12.9339   27.1738   38.6092 H       1  UNL1        0.0646
     44 H          14.8682   25.8489   37.7454 H       1  UNL1        0.0625
     45 H          14.9777   22.8208   32.4142 H       1  UNL1        0.0639
     46 H          16.0557   22.2126   30.2524 H       1  UNL1        0.0625
@<TRIPOS>UNITY_ATOM_ATTR
3 1
charge -1
@<TRIPOS>BOND
     1     1     2   ar
     2     2     3   ar
     3     2     4    1
     4     4     5   ar
     5     5     6   ar
     6     6     7   ar
     7     7     8    1
     8     8     9   ar
     9     9    10   ar
    10    10    11    1
    11    11    12    1
    12    12    13    1
    13    13    14   ar
    14    14    15   ar
    15    15    16   ar
    16    16    17    1
    17    16    18   ar
    18    18    19    1
    19    18    20   ar
    20    10    21   ar
    21    21    22    1
    22    22    23   ar
    23    23    24   ar
    24    24    25   ar
    25    25    26    1
    26    25    27   ar
    27    27    28   ar
    28    21    29   ar
    29     7    30   ar
    30    30    31   ar
    31    31     4   ar
    32    29     8   ar
    33    20    13   ar
    34    28    22   ar
    35     5    32    1
    36     6    33    1
    37     9    34    1
    38    11    35    1
    39    11    36    1
    40    12    37    1
    41    14    38    1
    42    15    39    1
    43    20    40    1
    44    23    41    1
    45    24    42    1
    46    27    43    1
    47    28    44    1
    48    30    45    1
    49    31    46    1
@<TRIPOS>MOLECULE
17sa23_out
 46 49 0 0 0
SMALL
GASTEIGER

@<TRIPOS>ATOM
      1 O          15.2660   22.2810   29.5760 O.co2   1  UNL1       -0.5446
      2 C          14.3890   22.1620   30.4140 C.2     1  UNL1        0.0717
      3 O          13.1290   22.6090   30.2300 O.co2   1  UNL1       -0.5446
      4 C          14.6100   21.4720   31.7130 C.ar    1  UNL1       -0.0026
      5 C          13.7590   20.4710   32.2030 C.ar    1  UNL1       -0.0509
      6 C          13.9840   19.9150   33.4710 C.ar    1  UNL1       -0.0357
      7 C          15.0410   20.3770   34.2700 C.ar    1  UNL1        0.0654
      8 N          15.1950   19.8900   35.6030 N.ar    1  UNL1       -0.2390
      9 C          14.3810   20.1600   36.6740 C.ar    1  UNL1        0.0365
     10 C          14.8110   19.3790   37.7250 C.ar    1  UNL1        0.0153
     11 C          14.1490   19.2680   39.0590 C.3     1  UNL1        0.0379
     12 N          14.4920   20.3500   39.9750 N.pl3   1  UNL1       -0.3395
     13 C          13.4840   21.1030   40.5770 C.ar    1  UNL1        0.0303
     14 C          13.3180   21.0030   41.9680 C.ar    1  UNL1       -0.0380
     15 C          12.2840   21.6740   42.6290 C.ar    1  UNL1       -0.0218
     16 C          11.3810   22.4270   41.8930 C.ar    1  UNL1        0.1585
     17 F          10.3860   23.0670   42.5220 F       1  UNL1       -0.2025
     18 C          11.5010   22.5000   40.5130 C.ar    1  UNL1        0.1601
     19 F          10.6130   23.2040   39.7950 F       1  UNL1       -0.2024
     20 C          12.5350   21.8370   39.8550 C.ar    1  UNL1       -0.0027
     21 C          15.9850   18.7300   37.2390 C.ar    1  UNL1        0.0978
     22 C          16.9020   17.8350   37.9650 C.ar    1  UNL1        0.0026
     23 C          16.4130   16.7780   38.7520 C.ar    1  UNL1       -0.0498
     24 C          17.2820   15.9110   39.4180 C.ar    1  UNL1       -0.0258
     25 C          18.6500   16.1130   39.3210 C.ar    1  UNL1        0.1234
     26 F          19.4860   15.2870   39.9650 F       1  UNL1       -0.2055
     27 C          19.1640   17.1630   38.5730 C.ar    1  UNL1       -0.0258
     28 C          18.2910   18.0230   37.8940 C.ar    1  UNL1       -0.0498
     29 N          16.1760   19.0170   35.9380 N.ar    1  UNL1       -0.1661
     30 C          15.9010   21.3630   33.7650 C.ar    1  UNL1       -0.0357
     31 C          15.6830   21.9070   32.4960 C.ar    1  UNL1       -0.0509
     32 H          12.9137   20.1213   31.5921 H       1  UNL1        0.0625
     33 H          13.3286   19.1128   33.8409 H       1  UNL1        0.0639
     34 H          13.5402   20.8691   36.6907 H       1  UNL1        0.0834
     35 H          13.0595   19.2732   38.9076 H       1  UNL1        0.0512
     36 H          14.5042   18.3334   39.5177 H       1  UNL1        0.0512
     37 H          15.4370   20.5500   40.1690 H       1  UNL1        0.1464
     38 H          14.0162   20.3836   42.5502 H       1  UNL1        0.0637
     39 H          12.1878   21.6052   43.7226 H       1  UNL1        0.0648
     40 H          12.6064   21.8907   38.7586 H       1  UNL1        0.0666
     41 H          15.3268   16.6311   38.8449 H       1  UNL1        0.0625
     42 H          16.8848   15.0759   40.0137 H       1  UNL1        0.0646
     43 H          20.2512   17.3192   38.5136 H       1  UNL1        0.0646
     44 H          18.6983   18.8539   37.2993 H       1  UNL1        0.0625
     45 H          16.7513   21.7100   34.3705 H       1  UNL1        0.0639
     46 H          16.3608   22.6830   32.1108 H       1  UNL1        0.0625
@<TRIPOS>UNITY_ATOM_ATTR
3 1
charge -1
@<TRIPOS>BOND
     1     1     2   ar
     2     2     3   ar
     3     2     4    1
     4     4     5   ar
     5     5     6   ar
     6     6     7   ar
     7     7     8    1
     8     8     9   ar
     9     9    10   ar
    10    10    11    1
    11    11    12    1
    12    12    13    1
    13    13    14   ar
    14    14    15   ar
    15    15    16   ar
    16    16    17    1
    17    16    18   ar
    18    18    19    1
    19    18    20   ar
    20    10    21   ar
    21    21    22    1
    22    22    23   ar
    23    23    24   ar
    24    24    25   ar
    25    25    26    1
    26    25    27   ar
    27    27    28   ar
    28    21    29   ar
    29     7    30   ar
    30    30    31   ar
    31    31     4   ar
    32    29     8   ar
    33    20    13   ar
    34    28    22   ar
    35     5    32    1
    36     6    33    1
    37     9    34    1
    38    11    35    1
    39    11    36    1
    40    12    37    1
    41    14    38    1
    42    15    39    1
    43    20    40    1
    44    23    41    1
    45    24    42    1
    46    27    43    1
    47    28    44    1
    48    30    45    1
    49    31    46    1
@<TRIPOS>MOLECULE
17sa23_out
 46 49 0 0 0
SMALL
GASTEIGER

@<TRIPOS>ATOM
      1 O          10.4770   22.8380   42.6100 O.co2   1  UNL1       -0.5446
      2 C          10.4720   21.8800   41.8580 C.2     1  UNL1        0.0717
      3 O           9.7110   20.7840   42.0650 O.co2   1  UNL1       -0.5446
      4 C          11.2780   21.8380   40.6080 C.ar    1  UNL1       -0.0026
      5 C          11.2490   22.8550   39.6440 C.ar    1  UNL1       -0.0509
      6 C          11.9760   22.7160   38.4520 C.ar    1  UNL1       -0.0357
      7 C          12.7110   21.5480   38.2030 C.ar    1  UNL1        0.0654
      8 N          13.3540   21.3630   36.9420 N.ar    1  UNL1       -0.2390
      9 C          14.3130   20.4290   36.6400 C.ar    1  UNL1        0.0365
     10 C          14.5530   20.5080   35.2850 C.ar    1  UNL1        0.0153
     11 C          15.4450   19.6040   34.5010 C.3     1  UNL1        0.0379
     12 N          16.7580   20.1760   34.2200 N.pl3   1  UNL1       -0.3395
     13 C          16.9690   20.9020   33.0490 C.ar    1  UNL1        0.0303
     14 C          17.5700   22.1680   33.1480 C.ar    1  UNL1       -0.0380
     15 C          17.7480   22.9810   32.0240 C.ar    1  UNL1       -0.0218
     16 C          17.2900   22.5460   30.7900 C.ar    1  UNL1        0.1585
     17 F          17.4540   23.3240   29.7120 F       1  UNL1       -0.2025
     18 C          16.6520   21.3200   30.6790 C.ar    1  UNL1        0.1601
     19 F          16.1830   20.9070   29.4920 F       1  UNL1       -0.2024
     20 C          16.4800   20.5060   31.7980 C.ar    1  UNL1       -0.0027
     21 C          13.7650   21.6130   34.8410 C.ar    1  UNL1        0.0978
     22 C          13.6930   22.2010   33.4930 C.ar    1  UNL1        0.0026
     23 C          14.1730   23.4990   33.2400 C.ar    1  UNL1       -0.0498
     24 C          14.1310   24.0470   31.9560 C.ar    1  UNL1       -0.0258
     25 C          13.5850   23.3070   30.9180 C.ar    1  UNL1        0.1234
     26 F          13.5370   23.8340   29.6870 F       1  UNL1       -0.2055
     27 C          13.0790   22.0330   31.1400 C.ar    1  UNL1       -0.0258
     28 C          13.1340   21.4800   32.4260 C.ar    1  UNL1       -0.0498
     29 N          13.0120   22.0890   35.8500 N.ar    1  UNL1       -0.1661
     30 C          12.7540   20.5430   39.1810 C.ar    1  UNL1       -0.0357
     31 C          12.0380   20.6890   40.3730 C.ar    1  UNL1       -0.0509
     32 H          10.6553   23.7637   39.8222 H       1  UNL1        0.0625
     33 H          11.9694   23.5273   37.7091 H       1  UNL1        0.0639
     34 H          14.8005   19.7435   37.3488 H       1  UNL1        0.0834
     35 H          15.5860   18.6744   35.0719 H       1  UNL1        0.0512
     36 H          14.9554   19.4304   33.5314 H       1  UNL1        0.0512
     37 H          17.4970   20.0480   34.8590 H       1  UNL1        0.1464
     38 H          17.9080   22.5277   34.1311 H       1  UNL1        0.0637
     39 H          18.2469   23.9568   32.1183 H       1  UNL1        0.0648
     40 H          15.9556   19.5443   31.6972 H       1  UNL1        0.0666
     41 H          14.5885   24.0925   34.0677 H       1  UNL1        0.0625
     42 H          14.5273   25.0561   31.7698 H       1  UNL1        0.0646
     43 H          12.6374   21.4611   30.3106 H       1  UNL1        0.0646
     44 H          12.7349   20.4701   32.6016 H       1  UNL1        0.0625
     45 H          13.3533   19.6367   39.0093 H       1  UNL1        0.0639
     46 H          12.0732   19.8933   41.1317 H       1  UNL1        0.0625
@<TRIPOS>UNITY_ATOM_ATTR
3 1
charge -1
@<TRIPOS>BOND
     1     1     2   ar
     2     2     3   ar
     3     2     4    1
     4     4     5   ar
     5     5     6   ar
     6     6     7   ar
     7     7     8    1
     8     8     9   ar
     9     9    10   ar
    10    10    11    1
    11    11    12    1
    12    12    13    1
    13    13    14   ar
    14    14    15   ar
    15    15    16   ar
    16    16    17    1
    17    16    18   ar
    18    18    19    1
    19    18    20   ar
    20    10    21   ar
    21    21    22    1
    22    22    23   ar
    23    23    24   ar
    24    24    25   ar
    25    25    26    1
    26    25    27   ar
    27    27    28   ar
    28    21    29   ar
    29     7    30   ar
    30    30    31   ar
    31    31     4   ar
    32    29     8   ar
    33    20    13   ar
    34    28    22   ar
    35     5    32    1
    36     6    33    1
    37     9    34    1
    38    11    35    1
    39    11    36    1
    40    12    37    1
    41    14    38    1
    42    15    39    1
    43    20    40    1
    44    23    41    1
    45    24    42    1
    46    27    43    1
    47    28    44    1
    48    30    45    1
    49    31    46    1
@<TRIPOS>MOLECULE
17sa23_out
 46 49 0 0 0
SMALL
GASTEIGER

@<TRIPOS>ATOM
      1 O           9.2990   24.2470   39.3010 O.co2   1  UNL1       -0.5446
      2 C          10.0810   24.6350   38.4510 C.2     1  UNL1        0.0717
      3 O          10.0280   25.8700   37.9090 O.co2   1  UNL1       -0.5446
      4 C          11.2040   23.7960   37.9520 C.ar    1  UNL1       -0.0026
      5 C          11.6810   23.8590   36.6360 C.ar    1  UNL1       -0.0509
      6 C          12.6930   22.9850   36.2110 C.ar    1  UNL1       -0.0357
      7 C          13.2120   22.0220   37.0890 C.ar    1  UNL1        0.0654
      8 N          14.1570   21.0610   36.6200 N.ar    1  UNL1       -0.2390
      9 C          14.4200   19.8330   37.1710 C.ar    1  UNL1        0.0365
     10 C          15.2920   19.1800   36.3260 C.ar    1  UNL1        0.0153
     11 C          15.7640   17.7720   36.4750 C.3     1  UNL1        0.0379
     12 N          14.7900   16.8910   37.1110 N.pl3   1  UNL1       -0.3395
     13 C          13.8860   16.1700   36.3310 C.ar    1  UNL1        0.0303
     14 C          14.1420   16.0490   34.9550 C.ar    1  UNL1       -0.0380
     15 C          13.2450   15.4000   34.1010 C.ar    1  UNL1       -0.0218
     16 C          12.0600   14.8950   34.6150 C.ar    1  UNL1        0.1585
     17 F          11.1950   14.2780   33.7990 F       1  UNL1       -0.2025
     18 C          11.7680   15.0460   35.9620 C.ar    1  UNL1        0.1601
     19 F          10.6100   14.5840   36.4570 F       1  UNL1       -0.2024
     20 C          12.6650   15.6870   36.8150 C.ar    1  UNL1       -0.0027
     21 C          15.6060   20.1400   35.3170 C.ar    1  UNL1        0.0978
     22 C          16.5520   20.0110   34.1960 C.ar    1  UNL1        0.0026
     23 C          16.1290   19.5460   32.9380 C.ar    1  UNL1       -0.0498
     24 C          17.0190   19.4500   31.8660 C.ar    1  UNL1       -0.0258
     25 C          18.3490   19.7960   32.0530 C.ar    1  UNL1        0.1234
     26 F          19.2060   19.6980   31.0290 F       1  UNL1       -0.2055
     27 C          18.8040   20.2340   33.2900 C.ar    1  UNL1       -0.0258
     28 C          17.9060   20.3420   34.3600 C.ar    1  UNL1       -0.0498
     29 N          14.8750   21.2570   35.4870 N.ar    1  UNL1       -0.1661
     30 C          12.7450   21.9780   38.4110 C.ar    1  UNL1       -0.0357
     31 C          11.7460   22.8580   38.8360 C.ar    1  UNL1       -0.0509
     32 H          11.2612   24.5951   35.9347 H       1  UNL1        0.0625
     33 H          13.0813   23.0553   35.1842 H       1  UNL1        0.0639
     34 H          14.0105   19.4411   38.1137 H       1  UNL1        0.0834
     35 H          15.9911   17.3742   35.4749 H       1  UNL1        0.0512
     36 H          16.6491   17.7970   37.1276 H       1  UNL1        0.0512
     37 H          14.7700   16.8070   38.0910 H       1  UNL1        0.1464
     38 H          15.0681   16.4740   34.5405 H       1  UNL1        0.0637
     39 H          13.4771   15.2910   33.0313 H       1  UNL1        0.0648
     40 H          12.4109   15.8143   37.8777 H       1  UNL1        0.0666
     41 H          15.0784   19.2527   32.7958 H       1  UNL1        0.0625
     42 H          16.6685   19.1033   30.8827 H       1  UNL1        0.0646
     43 H          19.8636   20.4947   33.4289 H       1  UNL1        0.0646
     44 H          18.2661   20.6900   35.3394 H       1  UNL1        0.0625
     45 H          13.1672   21.2473   39.1166 H       1  UNL1        0.0639
     46 H          11.3834   22.8124   39.8735 H       1  UNL1        0.0625
@<TRIPOS>UNITY_ATOM_ATTR
3 1
charge -1
@<TRIPOS>BOND
     1     1     2   ar
     2     2     3   ar
     3     2     4    1
     4     4     5   ar
     5     5     6   ar
     6     6     7   ar
     7     7     8    1
     8     8     9   ar
     9     9    10   ar
    10    10    11    1
    11    11    12    1
    12    12    13    1
    13    13    14   ar
    14    14    15   ar
    15    15    16   ar
    16    16    17    1
    17    16    18   ar
    18    18    19    1
    19    18    20   ar
    20    10    21   ar
    21    21    22    1
    22    22    23   ar
    23    23    24   ar
    24    24    25   ar
    25    25    26    1
    26    25    27   ar
    27    27    28   ar
    28    21    29   ar
    29     7    30   ar
    30    30    31   ar
    31    31     4   ar
    32    29     8   ar
    33    20    13   ar
    34    28    22   ar
    35     5    32    1
    36     6    33    1
    37     9    34    1
    38    11    35    1
    39    11    36    1
    40    12    37    1
    41    14    38    1
    42    15    39    1
    43    20    40    1
    44    23    41    1
    45    24    42    1
    46    27    43    1
    47    28    44    1
    48    30    45    1
    49    31    46    1
@<TRIPOS>MOLECULE
17sa23_out
 46 49 0 0 0
SMALL
GASTEIGER

@<TRIPOS>ATOM
      1 O          16.2760   21.5880   29.2450 O.co2   1  UNL1       -0.5446
      2 C          16.8180   21.7670   30.3220 C.2     1  UNL1        0.0717
      3 O          17.8180   22.6560   30.5040 O.co2   1  UNL1       -0.5446
      4 C          16.4030   21.0510   31.5580 C.ar    1  UNL1       -0.0026
      5 C          16.1490   19.6730   31.5940 C.ar    1  UNL1       -0.0509
      6 C          15.6870   19.0740   32.7760 C.ar    1  UNL1       -0.0357
      7 C          15.4460   19.8520   33.9180 C.ar    1  UNL1        0.0654
      8 N          14.8680   19.2580   35.0790 N.ar    1  UNL1       -0.2390
      9 C          14.5900   17.9280   35.2690 C.ar    1  UNL1        0.0365
     10 C          14.1740   17.7750   36.5730 C.ar    1  UNL1        0.0153
     11 C          13.8700   16.4790   37.2480 C.3     1  UNL1        0.0379
     12 N          13.7490   15.3530   36.3270 N.pl3   1  UNL1       -0.3395
     13 C          12.5390   15.1090   35.6780 C.ar    1  UNL1        0.0303
     14 C          12.4990   15.2250   34.2780 C.ar    1  UNL1       -0.0380
     15 C          11.3050   15.0630   33.5670 C.ar    1  UNL1       -0.0218
     16 C          10.1290   14.8170   34.2590 C.ar    1  UNL1        0.1585
     17 F           8.9830   14.6670   33.5830 F       1  UNL1       -0.2025
     18 C          10.1410   14.7450   35.6440 C.ar    1  UNL1        0.1601
     19 F           9.0000   14.5350   36.3190 F       1  UNL1       -0.2024
     20 C          11.3310   14.9000   36.3530 C.ar    1  UNL1       -0.0027
     21 C          14.1160   19.1030   37.0930 C.ar    1  UNL1        0.0978
     22 C          13.6590   19.5460   38.4220 C.ar    1  UNL1        0.0026
     23 C          14.2720   19.0740   39.5950 C.ar    1  UNL1       -0.0498
     24 C          13.8580   19.5140   40.8540 C.ar    1  UNL1       -0.0258
     25 C          12.8070   20.4140   40.9490 C.ar    1  UNL1        0.1234
     26 F          12.4040   20.8320   42.1560 F       1  UNL1       -0.2055
     27 C          12.1630   20.8790   39.8100 C.ar    1  UNL1       -0.0258
     28 C          12.5890   20.4460   38.5470 C.ar    1  UNL1       -0.0498
     29 N          14.5830   19.9830   36.1880 N.ar    1  UNL1       -0.1661
     30 C          15.7230   21.2270   33.8800 C.ar    1  UNL1       -0.0357
     31 C          16.1950   21.8190   32.7060 C.ar    1  UNL1       -0.0509
     32 H          16.3120   19.0605   30.6949 H       1  UNL1        0.0625
     33 H          15.5129   17.9883   32.8071 H       1  UNL1        0.0639
     34 H          14.6824   17.1300   34.5175 H       1  UNL1        0.0834
     35 H          14.6792   16.2600   37.9602 H       1  UNL1        0.0512
     36 H          12.8951   16.5953   37.7440 H       1  UNL1        0.0512
     37 H          14.5220   14.7660   36.1650 H       1  UNL1        0.1464
     38 H          13.4261   15.4479   33.7296 H       1  UNL1        0.0637
     39 H          11.2993   15.1302   32.4691 H       1  UNL1        0.0648
     40 H          11.3206   14.8577   37.4521 H       1  UNL1        0.0666
     41 H          15.0924   18.3451   39.5202 H       1  UNL1        0.0625
     42 H          14.3609   19.1501   41.7621 H       1  UNL1        0.0646
     43 H          11.3229   21.5835   39.8986 H       1  UNL1        0.0646
     44 H          12.0798   20.8151   37.6445 H       1  UNL1        0.0625
     45 H          15.5678   21.8417   34.7789 H       1  UNL1        0.0639
     46 H          16.4045   22.8987   32.6855 H       1  UNL1        0.0625
@<TRIPOS>UNITY_ATOM_ATTR
3 1
charge -1
@<TRIPOS>BOND
     1     1     2   ar
     2     2     3   ar
     3     2     4    1
     4     4     5   ar
     5     5     6   ar
     6     6     7   ar
     7     7     8    1
     8     8     9   ar
     9     9    10   ar
    10    10    11    1
    11    11    12    1
    12    12    13    1
    13    13    14   ar
    14    14    15   ar
    15    15    16   ar
    16    16    17    1
    17    16    18   ar
    18    18    19    1
    19    18    20   ar
    20    10    21   ar
    21    21    22    1
    22    22    23   ar
    23    23    24   ar
    24    24    25   ar
    25    25    26    1
    26    25    27   ar
    27    27    28   ar
    28    21    29   ar
    29     7    30   ar
    30    30    31   ar
    31    31     4   ar
    32    29     8   ar
    33    20    13   ar
    34    28    22   ar
    35     5    32    1
    36     6    33    1
    37     9    34    1
    38    11    35    1
    39    11    36    1
    40    12    37    1
    41    14    38    1
    42    15    39    1
    43    20    40    1
    44    23    41    1
    45    24    42    1
    46    27    43    1
    47    28    44    1
    48    30    45    1
    49    31    46    1
