
 OpenBabel09272610533D

 49 52  0  0  0  0  0  0  0  0999 V2000
    2.8708   -1.6933    0.4914 O   0  5  0  0  0  0  0  0  0  0  0  0
    1.2500   -0.1969    0.0356 O   0  0  0  0  0  0  0  0  0  0  0  0
    2.3227   -0.4635    0.5449 C   0  0  0  0  0  0  0  0  0  0  0  0
    9.9665   11.3244    1.8914 C   0  0  0  0  0  0  0  0  0  0  0  0
    6.6620    9.9492    4.2655 C   0  0  0  0  0  0  0  0  0  0  0  0
    7.0251   11.2957    4.2872 C   0  0  0  0  0  0  0  0  0  0  0  0
    8.0847   11.7390    3.5084 C   0  0  0  0  0  0  0  0  0  0  0  0
    8.7981   10.8587    2.7041 C   0  0  0  0  0  0  0  0  0  0  0  0
    8.4115    9.5055    2.6842 C   0  0  0  0  0  0  0  0  0  0  0  0
    7.3286    9.0352    3.4429 C   0  0  0  0  0  0  0  0  0  0  0  0
    7.0667    7.6725    3.4521 N   0  0  0  0  0  0  0  0  0  0  0  0
    5.9337    7.1183    4.1814 C   0  0  0  0  0  0  0  0  0  0  0  0
    9.9916    5.1391    9.1033 F   0  0  0  0  0  0  0  0  0  0  0  0
    8.3015    5.7685    5.9623 C   0  0  0  0  0  0  0  0  0  0  0  0
    9.1781    5.9206    7.0374 C   0  0  0  0  0  0  0  0  0  0  0  0
    9.1473    5.0010    8.0746 C   0  0  0  0  0  0  0  0  0  0  0  0
    8.2538    3.9368    8.0525 C   0  0  0  0  0  0  0  0  0  0  0  0
    7.3622    3.7963    6.9803 C   0  0  0  0  0  0  0  0  0  0  0  0
    7.3655    4.7199    5.9230 C   0  0  0  0  0  0  0  0  0  0  0  0
    5.9851    3.3937    4.3789 N   0  0  0  0  0  0  0  0  0  0  0  0
    6.4112    4.5965    4.8084 C   0  0  0  0  0  0  0  0  0  0  0  0
    5.8028    5.6412    4.0495 C   0  0  0  0  0  0  0  0  0  0  0  0
    5.0284    4.9930    3.1153 C   0  0  0  0  0  0  0  0  0  0  0  0
    5.1637    3.6465    3.3287 N   0  0  0  0  0  0  0  0  0  0  0  0
    4.0262    0.2422    2.2954 C   0  0  0  0  0  0  0  0  0  0  0  0
    4.7190    1.2639    2.9624 C   0  0  0  0  0  0  0  0  0  0  0  0
    4.5241    2.6035    2.5975 C   0  0  0  0  0  0  0  0  0  0  0  0
    3.6661    2.9059    1.5289 C   0  0  0  0  0  0  0  0  0  0  0  0
    2.9828    1.8872    0.8622 C   0  0  0  0  0  0  0  0  0  0  0  0
    3.1514    0.5535    1.2449 C   0  0  0  0  0  0  0  0  0  0  0  0
   10.2362   12.6546    1.9724 F   0  0  0  0  0  0  0  0  0  0  0  0
   11.1218   10.6919    2.2459 F   0  0  0  0  0  0  0  0  0  0  0  0
    9.8021   11.0627    0.5627 F   0  0  0  0  0  0  0  0  0  0  0  0
    8.4119   13.0350    3.5622 F   0  0  0  0  0  0  0  0  0  0  0  0
    5.8892    9.6220    4.8661 H   0  0  0  0  0  0  0  0  0  0  0  0
    6.5066   11.9613    4.8815 H   0  0  0  0  0  0  0  0  0  0  0  0
    8.9385    8.8413    2.0958 H   0  0  0  0  0  0  0  0  0  0  0  0
    7.6606    7.0657    2.9538 H   0  0  0  0  0  0  0  0  0  0  0  0
    5.0384    7.5715    3.8100 H   0  0  0  0  0  0  0  0  0  0  0  0
    6.0966    7.3268    5.2182 H   0  0  0  0  0  0  0  0  0  0  0  0
    8.3412    6.4398    5.1795 H   0  0  0  0  0  0  0  0  0  0  0  0
    9.8426    6.7098    7.0603 H   0  0  0  0  0  0  0  0  0  0  0  0
    8.2467    3.2515    8.8240 H   0  0  0  0  0  0  0  0  0  0  0  0
    6.6975    3.0070    6.9679 H   0  0  0  0  0  0  0  0  0  0  0  0
    4.4506    5.4398    2.3862 H   0  0  0  0  0  0  0  0  0  0  0  0
    4.1609   -0.7410    2.5787 H   0  0  0  0  0  0  0  0  0  0  0  0
    5.3741    1.0285    3.7243 H   0  0  0  0  0  0  0  0  0  0  0  0
    3.5396    3.8868    1.2342 H   0  0  0  0  0  0  0  0  0  0  0  0
    2.3490    2.1205    0.0818 H   0  0  0  0  0  0  0  0  0  0  0  0
  3  1  1  0  0  0  0
  3  2  2  0  0  0  0
  4 31  1  0  0  0  0
  4 32  1  0  0  0  0
  4 33  1  0  0  0  0
  5  6  2  0  0  0  0
  5 35  1  0  0  0  0
  6  7  1  0  0  0  0
  6 36  1  0  0  0  0
  7  8  2  0  0  0  0
  7 34  1  0  0  0  0
  8  4  1  0  0  0  0
  8  9  1  0  0  0  0
  9 10  2  0  0  0  0
  9 37  1  0  0  0  0
 10  5  1  0  0  0  0
 11 10  1  0  0  0  0
 11 38  1  0  0  0  0
 12 11  1  0  0  0  0
 12 39  1  0  0  0  0
 12 40  1  0  0  0  0
 14 15  2  0  0  0  0
 14 41  1  0  0  0  0
 15 16  1  0  0  0  0
 15 42  1  0  0  0  0
 16 13  1  0  0  0  0
 16 17  2  0  0  0  0
 17 18  1  0  0  0  0
 17 43  1  0  0  0  0
 18 19  2  0  0  0  0
 18 44  1  0  0  0  0
 19 14  1  0  0  0  0
 20 24  1  0  0  0  0
 21 19  1  0  0  0  0
 21 20  2  0  0  0  0
 22 12  1  0  0  0  0
 22 21  1  0  0  0  0
 23 22  2  0  0  0  0
 23 24  1  0  0  0  0
 23 45  1  0  0  0  0
 25 30  2  0  0  0  0
 25 46  1  0  0  0  0
 26 25  1  0  0  0  0
 26 47  1  0  0  0  0
 27 24  1  0  0  0  0
 27 26  2  0  0  0  0
 28 27  1  0  0  0  0
 28 48  1  0  0  0  0
 29 28  2  0  0  0  0
 29 49  1  0  0  0  0
 30  3  1  0  0  0  0
 30 29  1  0  0  0  0
M  CHG  1   1  -1
M  END
>  <Energy>
67.792

> <PREPARED_BY>
siam chowdhury
Computational and Medicinal Chemistry
[Dr. Alam's Research Team] www.alamresearch.org
Arkansas State University

$$$$
