22sa23_out
     RDKit          3D

 49 52  0  0  0  0  0  0  0  0999 V2000
   16.2220   13.5160   35.5640 O   0  0  0  0  0  0  0  0  0  0  0  0
   15.4270   14.3870   35.2590 C   0  0  0  0  0  0  0  0  0  0  0  0
   14.4780   14.2130   34.3200 O   0  0  0  0  0  0  0  0  0  0  0  0
   15.4050   15.7170   35.9230 C   0  0  0  0  0  0  0  0  0  0  0  0
   16.2290   16.0490   37.0070 C   0  0  0  0  0  0  0  0  0  0  0  0
   16.0990   17.2980   37.6350 C   0  0  0  0  0  0  0  0  0  0  0  0
   15.1310   18.2110   37.1970 C   0  0  0  0  0  0  0  0  0  0  0  0
   14.9440   19.4450   37.8860 N   0  0  0  0  0  0  0  0  0  0  0  0
   15.7670   20.5390   37.8370 C   0  0  0  0  0  0  0  0  0  0  0  0
   15.2080   21.5130   38.6330 C   0  0  0  0  0  0  0  0  0  0  0  0
   15.7760   22.8720   38.8520 C   0  0  0  0  0  0  0  0  0  0  0  0
   14.7690   23.8930   39.1120 N   0  0  0  0  0  0  0  0  0  0  0  0
   14.0910   24.5250   38.0810 C   0  0  0  0  0  0  0  0  0  0  0  0
   13.1910   25.5760   38.2860 C   0  0  0  0  0  0  0  0  0  0  0  0
   12.6040   26.2410   37.2100 C   0  0  0  0  0  0  0  0  0  0  0  0
   12.9380   25.8840   35.9110 C   0  0  0  0  0  0  0  0  0  0  0  0
   12.3640   26.5510   34.9030 F   0  0  0  0  0  0  0  0  0  0  0  0
   13.8550   24.8710   35.6610 C   0  0  0  0  0  0  0  0  0  0  0  0
   14.2480   24.5080   34.2630 C   0  0  0  0  0  0  0  0  0  0  0  0
   13.2310   24.0770   33.4680 F   0  0  0  0  0  0  0  0  0  0  0  0
   14.8130   25.5580   33.6000 F   0  0  0  0  0  0  0  0  0  0  0  0
   15.1820   23.5150   34.2350 F   0  0  0  0  0  0  0  0  0  0  0  0
   14.4300   24.2010   36.7580 C   0  0  0  0  0  0  0  0  0  0  0  0
   14.0230   20.9180   39.1610 C   0  0  0  0  0  0  0  0  0  0  0  0
   13.0530   21.5070   40.1000 C   0  0  0  0  0  0  0  0  0  0  0  0
   11.8830   22.1350   39.6350 C   0  0  0  0  0  0  0  0  0  0  0  0
   10.9360   22.6530   40.5180 C   0  0  0  0  0  0  0  0  0  0  0  0
   11.1670   22.5760   41.8840 C   0  0  0  0  0  0  0  0  0  0  0  0
   10.2650   23.0810   42.7330 F   0  0  0  0  0  0  0  0  0  0  0  0
   12.3250   21.9890   42.3760 C   0  0  0  0  0  0  0  0  0  0  0  0
   13.2680   21.4520   41.4860 C   0  0  0  0  0  0  0  0  0  0  0  0
   13.8610   19.6760   38.6700 N   0  0  0  0  0  0  0  0  0  0  0  0
   14.3260   17.8820   36.0950 C   0  0  0  0  0  0  0  0  0  0  0  0
   14.4620   16.6420   35.4670 C   0  0  0  0  0  0  0  0  0  0  0  0
   16.9793   15.3294   37.3666 H   0  0  0  0  0  0  0  0  0  0  0  0
   16.7598   17.5607   38.4742 H   0  0  0  0  0  0  0  0  0  0  0  0
   16.7034   20.6236   37.2660 H   0  0  0  0  0  0  0  0  0  0  0  0
   16.4574   22.8287   39.7145 H   0  0  0  0  0  0  0  0  0  0  0  0
   16.2917   23.1583   37.9235 H   0  0  0  0  0  0  0  0  0  0  0  0
   14.5650   24.1390   40.0440 H   0  0  0  0  0  0  0  0  0  0  0  0
   12.9423   25.8829   39.3126 H   0  0  0  0  0  0  0  0  0  0  0  0
   11.8776   27.0471   37.3904 H   0  0  0  0  0  0  0  0  0  0  0  0
   15.1640   23.4028   36.5733 H   0  0  0  0  0  0  0  0  0  0  0  0
   11.7115   22.2192   38.5517 H   0  0  0  0  0  0  0  0  0  0  0  0
   10.0154   23.1179   40.1355 H   0  0  0  0  0  0  0  0  0  0  0  0
   12.5029   21.9449   43.4606 H   0  0  0  0  0  0  0  0  0  0  0  0
   14.1832   20.9841   41.8779 H   0  0  0  0  0  0  0  0  0  0  0  0
   13.5842   18.6047   35.7242 H   0  0  0  0  0  0  0  0  0  0  0  0
   13.8225   16.3918   34.6077 H   0  0  0  0  0  0  0  0  0  0  0  0
  1  2  2  0
  2  3  1  0
  2  4  1  0
  4  5  2  0
  5  6  1  0
  6  7  2  0
  7  8  1  0
  8  9  1  0
  9 10  2  0
 10 11  1  0
 11 12  1  0
 12 13  1  0
 13 14  2  0
 14 15  1  0
 15 16  2  0
 16 17  1  0
 16 18  1  0
 18 19  1  0
 19 20  1  0
 19 21  1  0
 19 22  1  0
 18 23  2  0
 10 24  1  0
 24 25  1  0
 25 26  2  0
 26 27  1  0
 27 28  2  0
 28 29  1  0
 28 30  1  0
 30 31  2  0
 24 32  2  0
  7 33  1  0
 33 34  2  0
 34  4  1  0
 32  8  1  0
 23 13  1  0
 31 25  1  0
  5 35  1  0
  6 36  1  0
  9 37  1  0
 11 38  1  0
 11 39  1  0
 12 40  1  0
 14 41  1  0
 15 42  1  0
 23 43  1  0
 26 44  1  0
 27 45  1  0
 30 46  1  0
 31 47  1  0
 33 48  1  0
 34 49  1  0
M  CHG  1   3  -1
M  END
>  <meeko>  (1) 
{"is_sidechain": [false], "free_energy": -9.047, "intermolecular_energy": -12.749, "internal_energy": -1.415}

> <PREPARED_BY>
siam chowdhury
Computational and Medicinal Chemistry
[Dr. Alam's Research Team] www.alamresearch.org
Arkansas State University

$$$$
22sa23_out
     RDKit          3D

 49 52  0  0  0  0  0  0  0  0999 V2000
    6.1540   14.3790   31.0280 O   0  0  0  0  0  0  0  0  0  0  0  0
    6.4520   14.4020   32.2080 C   0  0  0  0  0  0  0  0  0  0  0  0
    5.5550   14.1980   33.1920 O   0  0  0  0  0  0  0  0  0  0  0  0
    7.8460   14.6220   32.6770 C   0  0  0  0  0  0  0  0  0  0  0  0
    8.2190   14.5770   34.0270 C   0  0  0  0  0  0  0  0  0  0  0  0
    9.5390   14.8710   34.4050 C   0  0  0  0  0  0  0  0  0  0  0  0
   10.4850   15.2330   33.4370 C   0  0  0  0  0  0  0  0  0  0  0  0
   11.8030   15.6120   33.8280 N   0  0  0  0  0  0  0  0  0  0  0  0
   12.6990   14.8450   34.5250 C   0  0  0  0  0  0  0  0  0  0  0  0
   13.8500   15.5850   34.6740 C   0  0  0  0  0  0  0  0  0  0  0  0
   15.0850   15.1210   35.3640 C   0  0  0  0  0  0  0  0  0  0  0  0
   14.9000   14.8640   36.7870 N   0  0  0  0  0  0  0  0  0  0  0  0
   15.3450   15.7570   37.7500 C   0  0  0  0  0  0  0  0  0  0  0  0
   16.5670   15.6180   38.4170 C   0  0  0  0  0  0  0  0  0  0  0  0
   17.0140   16.5910   39.3120 C   0  0  0  0  0  0  0  0  0  0  0  0
   16.2560   17.7340   39.5240 C   0  0  0  0  0  0  0  0  0  0  0  0
   16.7200   18.6510   40.3810 F   0  0  0  0  0  0  0  0  0  0  0  0
   15.0540   17.9300   38.8560 C   0  0  0  0  0  0  0  0  0  0  0  0
   14.2510   19.1780   39.0530 C   0  0  0  0  0  0  0  0  0  0  0  0
   13.7800   19.3720   40.3150 F   0  0  0  0  0  0  0  0  0  0  0  0
   14.9660   20.3010   38.7510 F   0  0  0  0  0  0  0  0  0  0  0  0
   13.1560   19.2160   38.2430 F   0  0  0  0  0  0  0  0  0  0  0  0
   14.6110   16.9330   37.9660 C   0  0  0  0  0  0  0  0  0  0  0  0
   13.5670   16.8320   34.0400 C   0  0  0  0  0  0  0  0  0  0  0  0
   14.4410   18.0120   33.9280 C   0  0  0  0  0  0  0  0  0  0  0  0
   14.7520   18.7930   35.0570 C   0  0  0  0  0  0  0  0  0  0  0  0
   15.6150   19.8850   34.9690 C   0  0  0  0  0  0  0  0  0  0  0  0
   16.1550   20.2280   33.7370 C   0  0  0  0  0  0  0  0  0  0  0  0
   16.9770   21.2800   33.6480 F   0  0  0  0  0  0  0  0  0  0  0  0
   15.8450   19.4950   32.5990 C   0  0  0  0  0  0  0  0  0  0  0  0
   14.9910   18.3870   32.6920 C   0  0  0  0  0  0  0  0  0  0  0  0
   12.3340   16.8180   33.5020 N   0  0  0  0  0  0  0  0  0  0  0  0
   10.1120   15.2510   32.0840 C   0  0  0  0  0  0  0  0  0  0  0  0
    8.8000   14.9520   31.7100 C   0  0  0  0  0  0  0  0  0  0  0  0
    7.4756   14.3106   34.7928 H   0  0  0  0  0  0  0  0  0  0  0  0
    9.8312   14.8169   35.4641 H   0  0  0  0  0  0  0  0  0  0  0  0
   12.5295   13.8240   34.8976 H   0  0  0  0  0  0  0  0  0  0  0  0
   15.4222   14.1904   34.8840 H   0  0  0  0  0  0  0  0  0  0  0  0
   15.8251   15.9302   35.2771 H   0  0  0  0  0  0  0  0  0  0  0  0
   14.4480   14.0370   37.0700 H   0  0  0  0  0  0  0  0  0  0  0  0
   17.1855   14.7272   38.2329 H   0  0  0  0  0  0  0  0  0  0  0  0
   17.9645   16.4523   39.8480 H   0  0  0  0  0  0  0  0  0  0  0  0
   13.6642   17.0800   37.4256 H   0  0  0  0  0  0  0  0  0  0  0  0
   14.3051   18.5367   36.0289 H   0  0  0  0  0  0  0  0  0  0  0  0
   15.8653   20.4688   35.8671 H   0  0  0  0  0  0  0  0  0  0  0  0
   16.2690   19.7833   31.6258 H   0  0  0  0  0  0  0  0  0  0  0  0
   14.7499   17.8068   31.7891 H   0  0  0  0  0  0  0  0  0  0  0  0
   10.8568   15.5019   31.3143 H   0  0  0  0  0  0  0  0  0  0  0  0
    8.5155   14.9763   30.6477 H   0  0  0  0  0  0  0  0  0  0  0  0
  1  2  2  0
  2  3  1  0
  2  4  1  0
  4  5  2  0
  5  6  1  0
  6  7  2  0
  7  8  1  0
  8  9  1  0
  9 10  2  0
 10 11  1  0
 11 12  1  0
 12 13  1  0
 13 14  2  0
 14 15  1  0
 15 16  2  0
 16 17  1  0
 16 18  1  0
 18 19  1  0
 19 20  1  0
 19 21  1  0
 19 22  1  0
 18 23  2  0
 10 24  1  0
 24 25  1  0
 25 26  2  0
 26 27  1  0
 27 28  2  0
 28 29  1  0
 28 30  1  0
 30 31  2  0
 24 32  2  0
  7 33  1  0
 33 34  2  0
 34  4  1  0
 32  8  1  0
 23 13  1  0
 31 25  1  0
  5 35  1  0
  6 36  1  0
  9 37  1  0
 11 38  1  0
 11 39  1  0
 12 40  1  0
 14 41  1  0
 15 42  1  0
 23 43  1  0
 26 44  1  0
 27 45  1  0
 30 46  1  0
 31 47  1  0
 33 48  1  0
 34 49  1  0
M  CHG  1   3  -1
M  END
>  <meeko>  (2) 
{"is_sidechain": [false], "free_energy": -8.932, "intermolecular_energy": -12.001, "internal_energy": -2.0}

> <PREPARED_BY>
siam chowdhury
Computational and Medicinal Chemistry
[Dr. Alam's Research Team] www.alamresearch.org
Arkansas State University

$$$$
22sa23_out
     RDKit          3D

 49 52  0  0  0  0  0  0  0  0999 V2000
   16.2320   13.3910   35.5030 O   0  0  0  0  0  0  0  0  0  0  0  0
   15.4570   14.2870   35.2210 C   0  0  0  0  0  0  0  0  0  0  0  0
   14.5110   14.1620   34.2710 O   0  0  0  0  0  0  0  0  0  0  0  0
   15.4570   15.5960   35.9270 C   0  0  0  0  0  0  0  0  0  0  0  0
   16.1150   15.8120   37.1450 C   0  0  0  0  0  0  0  0  0  0  0  0
   16.0090   17.0520   37.7940 C   0  0  0  0  0  0  0  0  0  0  0  0
   15.2260   18.0740   37.2400 C   0  0  0  0  0  0  0  0  0  0  0  0
   15.0510   19.3040   37.9390 N   0  0  0  0  0  0  0  0  0  0  0  0
   15.9020   20.3770   37.9260 C   0  0  0  0  0  0  0  0  0  0  0  0
   15.3460   21.3560   38.7180 C   0  0  0  0  0  0  0  0  0  0  0  0
   15.9410   22.6970   38.9700 C   0  0  0  0  0  0  0  0  0  0  0  0
   16.3180   23.4080   37.7550 N   0  0  0  0  0  0  0  0  0  0  0  0
   15.4360   23.5550   36.6950 C   0  0  0  0  0  0  0  0  0  0  0  0
   15.5130   22.7940   35.5230 C   0  0  0  0  0  0  0  0  0  0  0  0
   14.5480   22.9140   34.5230 C   0  0  0  0  0  0  0  0  0  0  0  0
   13.4720   23.7730   34.7000 C   0  0  0  0  0  0  0  0  0  0  0  0
   12.5600   23.8540   33.7250 F   0  0  0  0  0  0  0  0  0  0  0  0
   13.3370   24.5200   35.8630 C   0  0  0  0  0  0  0  0  0  0  0  0
   12.1590   25.4200   36.0740 C   0  0  0  0  0  0  0  0  0  0  0  0
   11.9780   26.3730   35.1200 F   0  0  0  0  0  0  0  0  0  0  0  0
   10.9860   24.7250   36.1280 F   0  0  0  0  0  0  0  0  0  0  0  0
   12.2360   26.0950   37.2570 F   0  0  0  0  0  0  0  0  0  0  0  0
   14.3260   24.3980   36.8580 C   0  0  0  0  0  0  0  0  0  0  0  0
   14.1330   20.7850   39.2060 C   0  0  0  0  0  0  0  0  0  0  0  0
   13.1520   21.3870   40.1250 C   0  0  0  0  0  0  0  0  0  0  0  0
   12.0920   22.1750   39.6390 C   0  0  0  0  0  0  0  0  0  0  0  0
   11.1320   22.7100   40.4980 C   0  0  0  0  0  0  0  0  0  0  0  0
   11.2400   22.4870   41.8630 C   0  0  0  0  0  0  0  0  0  0  0  0
   10.3260   23.0070   42.6900 F   0  0  0  0  0  0  0  0  0  0  0  0
   12.2910   21.7380   42.3780 C   0  0  0  0  0  0  0  0  0  0  0  0
   13.2450   21.1860   41.5110 C   0  0  0  0  0  0  0  0  0  0  0  0
   13.9530   19.5540   38.6950 N   0  0  0  0  0  0  0  0  0  0  0  0
   14.5910   17.8590   36.0060 C   0  0  0  0  0  0  0  0  0  0  0  0
   14.7040   16.6270   35.3590 C   0  0  0  0  0  0  0  0  0  0  0  0
   16.7163   15.0076   37.5938 H   0  0  0  0  0  0  0  0  0  0  0  0
   16.5424   17.2223   38.7408 H   0  0  0  0  0  0  0  0  0  0  0  0
   16.8557   20.4442   37.3820 H   0  0  0  0  0  0  0  0  0  0  0  0
   15.2052   23.3066   39.5150 H   0  0  0  0  0  0  0  0  0  0  0  0
   16.8631   22.5363   39.5478 H   0  0  0  0  0  0  0  0  0  0  0  0
   17.2210   23.7940   37.6860 H   0  0  0  0  0  0  0  0  0  0  0  0
   16.3476   22.0902   35.3883 H   0  0  0  0  0  0  0  0  0  0  0  0
   14.6395   22.3291   33.5959 H   0  0  0  0  0  0  0  0  0  0  0  0
   14.2259   24.9785   37.7870 H   0  0  0  0  0  0  0  0  0  0  0  0
   12.0191   22.3731   38.5594 H   0  0  0  0  0  0  0  0  0  0  0  0
   10.2971   23.3032   40.0968 H   0  0  0  0  0  0  0  0  0  0  0  0
   12.3745   21.5785   43.4632 H   0  0  0  0  0  0  0  0  0  0  0  0
   14.0738   20.5901   41.9209 H   0  0  0  0  0  0  0  0  0  0  0  0
   14.0012   18.6659   35.5466 H   0  0  0  0  0  0  0  0  0  0  0  0
   14.1971   16.4669   34.3960 H   0  0  0  0  0  0  0  0  0  0  0  0
  1  2  2  0
  2  3  1  0
  2  4  1  0
  4  5  2  0
  5  6  1  0
  6  7  2  0
  7  8  1  0
  8  9  1  0
  9 10  2  0
 10 11  1  0
 11 12  1  0
 12 13  1  0
 13 14  2  0
 14 15  1  0
 15 16  2  0
 16 17  1  0
 16 18  1  0
 18 19  1  0
 19 20  1  0
 19 21  1  0
 19 22  1  0
 18 23  2  0
 10 24  1  0
 24 25  1  0
 25 26  2  0
 26 27  1  0
 27 28  2  0
 28 29  1  0
 28 30  1  0
 30 31  2  0
 24 32  2  0
  7 33  1  0
 33 34  2  0
 34  4  1  0
 32  8  1  0
 23 13  1  0
 31 25  1  0
  5 35  1  0
  6 36  1  0
  9 37  1  0
 11 38  1  0
 11 39  1  0
 12 40  1  0
 14 41  1  0
 15 42  1  0
 23 43  1  0
 26 44  1  0
 27 45  1  0
 30 46  1  0
 31 47  1  0
 33 48  1  0
 34 49  1  0
M  CHG  1   3  -1
M  END
>  <meeko>  (3) 
{"is_sidechain": [false], "free_energy": -8.931, "intermolecular_energy": -12.399, "internal_energy": -1.602}

> <PREPARED_BY>
siam chowdhury
Computational and Medicinal Chemistry
[Dr. Alam's Research Team] www.alamresearch.org
Arkansas State University

$$$$
22sa23_out
     RDKit          3D

 49 52  0  0  0  0  0  0  0  0999 V2000
    5.8290   14.2130   30.9260 O   0  0  0  0  0  0  0  0  0  0  0  0
    6.1430   14.3160   32.0980 C   0  0  0  0  0  0  0  0  0  0  0  0
    5.2550   14.2000   33.1040 O   0  0  0  0  0  0  0  0  0  0  0  0
    7.5460   14.5440   32.5330 C   0  0  0  0  0  0  0  0  0  0  0  0
    7.9400   14.5610   33.8780 C   0  0  0  0  0  0  0  0  0  0  0  0
    9.2690   14.8590   34.2200 C   0  0  0  0  0  0  0  0  0  0  0  0
   10.2030   15.1630   33.2210 C   0  0  0  0  0  0  0  0  0  0  0  0
   11.5310   15.5460   33.5710 N   0  0  0  0  0  0  0  0  0  0  0  0
   12.4700   14.7610   34.1880 C   0  0  0  0  0  0  0  0  0  0  0  0
   13.6140   15.5140   34.3230 C   0  0  0  0  0  0  0  0  0  0  0  0
   14.8860   15.0400   34.9330 C   0  0  0  0  0  0  0  0  0  0  0  0
   14.7940   14.7960   36.3670 N   0  0  0  0  0  0  0  0  0  0  0  0
   15.2800   15.7090   37.2920 C   0  0  0  0  0  0  0  0  0  0  0  0
   14.4610   16.6050   37.9870 C   0  0  0  0  0  0  0  0  0  0  0  0
   14.9840   17.4400   38.9750 C   0  0  0  0  0  0  0  0  0  0  0  0
   16.3310   17.3640   39.3020 C   0  0  0  0  0  0  0  0  0  0  0  0
   16.7950   18.1730   40.2620 F   0  0  0  0  0  0  0  0  0  0  0  0
   17.1730   16.4640   38.6630 C   0  0  0  0  0  0  0  0  0  0  0  0
   18.6170   16.3510   39.0390 C   0  0  0  0  0  0  0  0  0  0  0  0
   18.8570   15.8250   40.2710 F   0  0  0  0  0  0  0  0  0  0  0  0
   19.3160   15.5700   38.1640 F   0  0  0  0  0  0  0  0  0  0  0  0
   19.2460   17.5610   39.0270 F   0  0  0  0  0  0  0  0  0  0  0  0
   16.6330   15.6360   37.6600 C   0  0  0  0  0  0  0  0  0  0  0  0
   13.2830   16.7860   33.7670 C   0  0  0  0  0  0  0  0  0  0  0  0
   14.1310   17.9870   33.6780 C   0  0  0  0  0  0  0  0  0  0  0  0
   14.3890   18.6010   32.4380 C   0  0  0  0  0  0  0  0  0  0  0  0
   15.1520   19.7650   32.3500 C   0  0  0  0  0  0  0  0  0  0  0  0
   15.6950   20.3120   33.5030 C   0  0  0  0  0  0  0  0  0  0  0  0
   16.4360   21.4230   33.4200 F   0  0  0  0  0  0  0  0  0  0  0  0
   15.4840   19.7130   34.7390 C   0  0  0  0  0  0  0  0  0  0  0  0
   14.7010   18.5530   34.8280 C   0  0  0  0  0  0  0  0  0  0  0  0
   12.0270   16.7760   33.2850 N   0  0  0  0  0  0  0  0  0  0  0  0
    9.8080   15.1180   31.8740 C   0  0  0  0  0  0  0  0  0  0  0  0
    8.4880   14.8140   31.5360 C   0  0  0  0  0  0  0  0  0  0  0  0
    7.2065   14.3404   34.6675 H   0  0  0  0  0  0  0  0  0  0  0  0
    9.5777   14.8537   35.2758 H   0  0  0  0  0  0  0  0  0  0  0  0
   12.3341   13.7197   34.5154 H   0  0  0  0  0  0  0  0  0  0  0  0
   15.1792   14.1017   34.4394 H   0  0  0  0  0  0  0  0  0  0  0  0
   15.6279   15.8395   34.7904 H   0  0  0  0  0  0  0  0  0  0  0  0
   14.3770   13.9640   36.6870 H   0  0  0  0  0  0  0  0  0  0  0  0
   13.3877   16.6521   37.7509 H   0  0  0  0  0  0  0  0  0  0  0  0
   14.3304   18.1569   39.4936 H   0  0  0  0  0  0  0  0  0  0  0  0
   17.2882   14.9133   37.1517 H   0  0  0  0  0  0  0  0  0  0  0  0
   13.9805   18.1537   31.5198 H   0  0  0  0  0  0  0  0  0  0  0  0
   15.3216   20.2450   31.3749 H   0  0  0  0  0  0  0  0  0  0  0  0
   15.9302   20.1478   35.6456 H   0  0  0  0  0  0  0  0  0  0  0  0
   14.5323   18.0829   35.8081 H   0  0  0  0  0  0  0  0  0  0  0  0
   10.5424   15.3233   31.0813 H   0  0  0  0  0  0  0  0  0  0  0  0
    8.1872   14.7867   30.4783 H   0  0  0  0  0  0  0  0  0  0  0  0
  1  2  2  0
  2  3  1  0
  2  4  1  0
  4  5  2  0
  5  6  1  0
  6  7  2  0
  7  8  1  0
  8  9  1  0
  9 10  2  0
 10 11  1  0
 11 12  1  0
 12 13  1  0
 13 14  2  0
 14 15  1  0
 15 16  2  0
 16 17  1  0
 16 18  1  0
 18 19  1  0
 19 20  1  0
 19 21  1  0
 19 22  1  0
 18 23  2  0
 10 24  1  0
 24 25  1  0
 25 26  2  0
 26 27  1  0
 27 28  2  0
 28 29  1  0
 28 30  1  0
 30 31  2  0
 24 32  2  0
  7 33  1  0
 33 34  2  0
 34  4  1  0
 32  8  1  0
 23 13  1  0
 31 25  1  0
  5 35  1  0
  6 36  1  0
  9 37  1  0
 11 38  1  0
 11 39  1  0
 12 40  1  0
 14 41  1  0
 15 42  1  0
 23 43  1  0
 26 44  1  0
 27 45  1  0
 30 46  1  0
 31 47  1  0
 33 48  1  0
 34 49  1  0
M  CHG  1   3  -1
M  END
>  <meeko>  (4) 
{"is_sidechain": [false], "free_energy": -8.821, "intermolecular_energy": -12.212, "internal_energy": -1.634}

> <PREPARED_BY>
siam chowdhury
Computational and Medicinal Chemistry
[Dr. Alam's Research Team] www.alamresearch.org
Arkansas State University

$$$$
22sa23_out
     RDKit          3D

 49 52  0  0  0  0  0  0  0  0999 V2000
    9.2970   14.3890   31.5780 O   0  0  0  0  0  0  0  0  0  0  0  0
    9.2990   14.7470   32.7410 C   0  0  0  0  0  0  0  0  0  0  0  0
    8.1950   14.7250   33.5130 O   0  0  0  0  0  0  0  0  0  0  0  0
   10.5300   15.2080   33.4340 C   0  0  0  0  0  0  0  0  0  0  0  0
   10.9190   14.7480   34.7000 C   0  0  0  0  0  0  0  0  0  0  0  0
   12.0530   15.2840   35.3290 C   0  0  0  0  0  0  0  0  0  0  0  0
   12.7910   16.2990   34.7050 C   0  0  0  0  0  0  0  0  0  0  0  0
   13.8940   16.9030   35.3790 N   0  0  0  0  0  0  0  0  0  0  0  0
   14.3440   18.1860   35.2180 C   0  0  0  0  0  0  0  0  0  0  0  0
   15.4130   18.3600   36.0670 C   0  0  0  0  0  0  0  0  0  0  0  0
   16.1930   19.6190   36.2190 C   0  0  0  0  0  0  0  0  0  0  0  0
   15.3720   20.8220   36.2050 N   0  0  0  0  0  0  0  0  0  0  0  0
   14.9480   21.4260   37.3790 C   0  0  0  0  0  0  0  0  0  0  0  0
   14.8640   22.8140   37.5400 C   0  0  0  0  0  0  0  0  0  0  0  0
   14.3440   23.3730   38.7080 C   0  0  0  0  0  0  0  0  0  0  0  0
   13.8690   22.5470   39.7180 C   0  0  0  0  0  0  0  0  0  0  0  0
   13.3680   23.1180   40.8190 F   0  0  0  0  0  0  0  0  0  0  0  0
   13.9000   21.1650   39.5850 C   0  0  0  0  0  0  0  0  0  0  0  0
   13.3540   20.2700   40.6540 C   0  0  0  0  0  0  0  0  0  0  0  0
   13.7280   18.9650   40.5650 F   0  0  0  0  0  0  0  0  0  0  0  0
   13.7290   20.6760   41.9020 F   0  0  0  0  0  0  0  0  0  0  0  0
   11.9910   20.2620   40.6690 F   0  0  0  0  0  0  0  0  0  0  0  0
   14.4390   20.6160   38.4050 C   0  0  0  0  0  0  0  0  0  0  0  0
   15.5710   17.0990   36.7170 C   0  0  0  0  0  0  0  0  0  0  0  0
   16.5880   16.7110   37.7090 C   0  0  0  0  0  0  0  0  0  0  0  0
   16.3670   16.9000   39.0860 C   0  0  0  0  0  0  0  0  0  0  0  0
   17.3050   16.4920   40.0350 C   0  0  0  0  0  0  0  0  0  0  0  0
   18.4940   15.9170   39.6120 C   0  0  0  0  0  0  0  0  0  0  0  0
   19.4000   15.5330   40.5190 F   0  0  0  0  0  0  0  0  0  0  0  0
   18.7560   15.7430   38.2590 C   0  0  0  0  0  0  0  0  0  0  0  0
   17.8050   16.1370   37.3070 C   0  0  0  0  0  0  0  0  0  0  0  0
   14.6200   16.2380   36.3130 N   0  0  0  0  0  0  0  0  0  0  0  0
   12.4120   16.7380   33.4270 C   0  0  0  0  0  0  0  0  0  0  0  0
   11.2870   16.1980   32.8000 C   0  0  0  0  0  0  0  0  0  0  0  0
   10.3331   13.9640   35.2020 H   0  0  0  0  0  0  0  0  0  0  0  0
   12.3636   14.9066   36.3144 H   0  0  0  0  0  0  0  0  0  0  0  0
   13.9270   18.9403   34.5345 H   0  0  0  0  0  0  0  0  0  0  0  0
   16.7340   19.5789   37.1759 H   0  0  0  0  0  0  0  0  0  0  0  0
   16.8715   19.6829   35.3555 H   0  0  0  0  0  0  0  0  0  0  0  0
   15.1110   21.2160   35.3410 H   0  0  0  0  0  0  0  0  0  0  0  0
   15.2135   23.4746   36.7329 H   0  0  0  0  0  0  0  0  0  0  0  0
   14.3104   24.4659   38.8284 H   0  0  0  0  0  0  0  0  0  0  0  0
   14.4614   19.5228   38.2849 H   0  0  0  0  0  0  0  0  0  0  0  0
   15.4354   17.3794   39.4211 H   0  0  0  0  0  0  0  0  0  0  0  0
   17.1034   16.6251   41.1081 H   0  0  0  0  0  0  0  0  0  0  0  0
   19.7079   15.2969   37.9350 H   0  0  0  0  0  0  0  0  0  0  0  0
   18.0139   15.9953   36.2364 H   0  0  0  0  0  0  0  0  0  0  0  0
   13.0043   17.5116   32.9164 H   0  0  0  0  0  0  0  0  0  0  0  0
   10.9946   16.5538   31.8010 H   0  0  0  0  0  0  0  0  0  0  0  0
  1  2  2  0
  2  3  1  0
  2  4  1  0
  4  5  2  0
  5  6  1  0
  6  7  2  0
  7  8  1  0
  8  9  1  0
  9 10  2  0
 10 11  1  0
 11 12  1  0
 12 13  1  0
 13 14  2  0
 14 15  1  0
 15 16  2  0
 16 17  1  0
 16 18  1  0
 18 19  1  0
 19 20  1  0
 19 21  1  0
 19 22  1  0
 18 23  2  0
 10 24  1  0
 24 25  1  0
 25 26  2  0
 26 27  1  0
 27 28  2  0
 28 29  1  0
 28 30  1  0
 30 31  2  0
 24 32  2  0
  7 33  1  0
 33 34  2  0
 34  4  1  0
 32  8  1  0
 23 13  1  0
 31 25  1  0
  5 35  1  0
  6 36  1  0
  9 37  1  0
 11 38  1  0
 11 39  1  0
 12 40  1  0
 14 41  1  0
 15 42  1  0
 23 43  1  0
 26 44  1  0
 27 45  1  0
 30 46  1  0
 31 47  1  0
 33 48  1  0
 34 49  1  0
M  CHG  1   3  -1
M  END
>  <meeko>  (5) 
{"is_sidechain": [false], "free_energy": -8.755, "intermolecular_energy": -12.193, "internal_energy": -1.56}

> <PREPARED_BY>
siam chowdhury
Computational and Medicinal Chemistry
[Dr. Alam's Research Team] www.alamresearch.org
Arkansas State University

$$$$
22sa23_out
     RDKit          3D

 49 52  0  0  0  0  0  0  0  0999 V2000
   10.3880   22.8240   42.7290 O   0  0  0  0  0  0  0  0  0  0  0  0
   10.3870   21.8560   41.9920 C   0  0  0  0  0  0  0  0  0  0  0  0
    9.6090   20.7770   42.2050 O   0  0  0  0  0  0  0  0  0  0  0  0
   11.2170   21.7860   40.7610 C   0  0  0  0  0  0  0  0  0  0  0  0
   11.2120   22.7790   39.7720 C   0  0  0  0  0  0  0  0  0  0  0  0
   11.9630   22.6110   38.5990 C   0  0  0  0  0  0  0  0  0  0  0  0
   12.7060   21.4400   38.3980 C   0  0  0  0  0  0  0  0  0  0  0  0
   13.4030   21.2320   37.1710 N   0  0  0  0  0  0  0  0  0  0  0  0
   14.2840   20.2210   36.8960 C   0  0  0  0  0  0  0  0  0  0  0  0
   14.7110   20.3850   35.5980 C   0  0  0  0  0  0  0  0  0  0  0  0
   15.6690   19.4920   34.8900 C   0  0  0  0  0  0  0  0  0  0  0  0
   15.2220   19.0850   33.5650 N   0  0  0  0  0  0  0  0  0  0  0  0
   14.0450   18.3760   33.3800 C   0  0  0  0  0  0  0  0  0  0  0  0
   13.0880   18.7170   32.4180 C   0  0  0  0  0  0  0  0  0  0  0  0
   11.9630   17.9190   32.2090 C   0  0  0  0  0  0  0  0  0  0  0  0
   11.7990   16.7490   32.9380 C   0  0  0  0  0  0  0  0  0  0  0  0
   10.7140   16.0030   32.7020 F   0  0  0  0  0  0  0  0  0  0  0  0
   12.7430   16.3540   33.8770 C   0  0  0  0  0  0  0  0  0  0  0  0
   12.5900   15.0740   34.6390 C   0  0  0  0  0  0  0  0  0  0  0  0
   13.5270   14.8570   35.6010 F   0  0  0  0  0  0  0  0  0  0  0  0
   11.3860   14.9970   35.2750 F   0  0  0  0  0  0  0  0  0  0  0  0
   12.6420   13.9830   33.8230 F   0  0  0  0  0  0  0  0  0  0  0  0
   13.8660   17.1760   34.0860 C   0  0  0  0  0  0  0  0  0  0  0  0
   14.0410   21.5580   35.1390 C   0  0  0  0  0  0  0  0  0  0  0  0
   14.1530   22.2120   33.8240 C   0  0  0  0  0  0  0  0  0  0  0  0
   13.0550   22.2670   32.9460 C   0  0  0  0  0  0  0  0  0  0  0  0
   13.1380   22.9250   31.7190 C   0  0  0  0  0  0  0  0  0  0  0  0
   14.3380   23.5100   31.3410 C   0  0  0  0  0  0  0  0  0  0  0  0
   14.4240   24.1340   30.1610 F   0  0  0  0  0  0  0  0  0  0  0  0
   15.4500   23.4490   32.1720 C   0  0  0  0  0  0  0  0  0  0  0  0
   15.3590   22.8030   33.4140 C   0  0  0  0  0  0  0  0  0  0  0  0
   13.2260   22.0390   36.0950 N   0  0  0  0  0  0  0  0  0  0  0  0
   12.7280   20.4600   39.4030 C   0  0  0  0  0  0  0  0  0  0  0  0
   11.9850   20.6330   40.5730 C   0  0  0  0  0  0  0  0  0  0  0  0
   10.6173   23.6931   39.9160 H   0  0  0  0  0  0  0  0  0  0  0  0
   11.9686   23.4015   37.8341 H   0  0  0  0  0  0  0  0  0  0  0  0
   14.5941   19.4230   37.5866 H   0  0  0  0  0  0  0  0  0  0  0  0
   16.6263   20.0235   34.7852 H   0  0  0  0  0  0  0  0  0  0  0  0
   15.7602   18.5766   35.4931 H   0  0  0  0  0  0  0  0  0  0  0  0
   15.7700   19.3200   32.7810 H   0  0  0  0  0  0  0  0  0  0  0  0
   13.2248   19.6283   31.8173 H   0  0  0  0  0  0  0  0  0  0  0  0
   11.2069   18.2164   31.4675 H   0  0  0  0  0  0  0  0  0  0  0  0
   14.6238   16.8700   34.8223 H   0  0  0  0  0  0  0  0  0  0  0  0
   12.1111   21.7807   33.2333 H   0  0  0  0  0  0  0  0  0  0  0  0
   12.2608   22.9796   31.0575 H   0  0  0  0  0  0  0  0  0  0  0  0
   16.3995   23.9062   31.8567 H   0  0  0  0  0  0  0  0  0  0  0  0
   16.2394   22.7591   34.0719 H   0  0  0  0  0  0  0  0  0  0  0  0
   13.3333   19.5515   39.2684 H   0  0  0  0  0  0  0  0  0  0  0  0
   12.0043   19.8566   41.3520 H   0  0  0  0  0  0  0  0  0  0  0  0
  1  2  2  0
  2  3  1  0
  2  4  1  0
  4  5  2  0
  5  6  1  0
  6  7  2  0
  7  8  1  0
  8  9  1  0
  9 10  2  0
 10 11  1  0
 11 12  1  0
 12 13  1  0
 13 14  2  0
 14 15  1  0
 15 16  2  0
 16 17  1  0
 16 18  1  0
 18 19  1  0
 19 20  1  0
 19 21  1  0
 19 22  1  0
 18 23  2  0
 10 24  1  0
 24 25  1  0
 25 26  2  0
 26 27  1  0
 27 28  2  0
 28 29  1  0
 28 30  1  0
 30 31  2  0
 24 32  2  0
  7 33  1  0
 33 34  2  0
 34  4  1  0
 32  8  1  0
 23 13  1  0
 31 25  1  0
  5 35  1  0
  6 36  1  0
  9 37  1  0
 11 38  1  0
 11 39  1  0
 12 40  1  0
 14 41  1  0
 15 42  1  0
 23 43  1  0
 26 44  1  0
 27 45  1  0
 30 46  1  0
 31 47  1  0
 33 48  1  0
 34 49  1  0
M  CHG  1   3  -1
M  END
>  <meeko>  (6) 
{"is_sidechain": [false], "free_energy": -8.738, "intermolecular_energy": -11.961, "internal_energy": -1.768}

> <PREPARED_BY>
siam chowdhury
Computational and Medicinal Chemistry
[Dr. Alam's Research Team] www.alamresearch.org
Arkansas State University

$$$$
22sa23_out
     RDKit          3D

 49 52  0  0  0  0  0  0  0  0999 V2000
    9.3100   14.3870   31.4990 O   0  0  0  0  0  0  0  0  0  0  0  0
    9.3020   14.7720   32.6540 C   0  0  0  0  0  0  0  0  0  0  0  0
    8.1860   14.7920   33.4090 O   0  0  0  0  0  0  0  0  0  0  0  0
   10.5330   15.2220   33.3560 C   0  0  0  0  0  0  0  0  0  0  0  0
   10.9550   14.6930   34.5830 C   0  0  0  0  0  0  0  0  0  0  0  0
   12.0860   15.2190   35.2270 C   0  0  0  0  0  0  0  0  0  0  0  0
   12.7860   16.2920   34.6580 C   0  0  0  0  0  0  0  0  0  0  0  0
   13.8840   16.8810   35.3510 N   0  0  0  0  0  0  0  0  0  0  0  0
   14.3230   18.1730   35.2330 C   0  0  0  0  0  0  0  0  0  0  0  0
   15.3910   18.3270   36.0880 C   0  0  0  0  0  0  0  0  0  0  0  0
   16.1610   19.5860   36.2810 C   0  0  0  0  0  0  0  0  0  0  0  0
   15.3900   20.7920   36.0090 N   0  0  0  0  0  0  0  0  0  0  0  0
   15.1180   21.7200   37.0030 C   0  0  0  0  0  0  0  0  0  0  0  0
   16.1140   22.3450   37.7610 C   0  0  0  0  0  0  0  0  0  0  0  0
   15.7960   23.3410   38.6860 C   0  0  0  0  0  0  0  0  0  0  0  0
   14.4780   23.7470   38.8390 C   0  0  0  0  0  0  0  0  0  0  0  0
   14.2120   24.7110   39.7280 F   0  0  0  0  0  0  0  0  0  0  0  0
   13.4620   23.1790   38.0820 C   0  0  0  0  0  0  0  0  0  0  0  0
   12.0440   23.6400   38.2160 C   0  0  0  0  0  0  0  0  0  0  0  0
   11.4640   23.3890   39.4200 F   0  0  0  0  0  0  0  0  0  0  0  0
   11.9220   24.9850   38.0210 F   0  0  0  0  0  0  0  0  0  0  0  0
   11.2280   23.0630   37.2880 F   0  0  0  0  0  0  0  0  0  0  0  0
   13.7970   22.1670   37.1610 C   0  0  0  0  0  0  0  0  0  0  0  0
   15.5600   17.0470   36.6960 C   0  0  0  0  0  0  0  0  0  0  0  0
   16.5800   16.6340   37.6740 C   0  0  0  0  0  0  0  0  0  0  0  0
   17.8030   16.0790   37.2560 C   0  0  0  0  0  0  0  0  0  0  0  0
   18.7940   15.7290   38.1740 C   0  0  0  0  0  0  0  0  0  0  0  0
   18.5560   15.9000   39.5300 C   0  0  0  0  0  0  0  0  0  0  0  0
   19.5000   15.5560   40.4130 F   0  0  0  0  0  0  0  0  0  0  0  0
   17.3470   16.4180   39.9780 C   0  0  0  0  0  0  0  0  0  0  0  0
   16.3600   16.7860   39.0520 C   0  0  0  0  0  0  0  0  0  0  0  0
   14.6150   16.1920   36.2630 N   0  0  0  0  0  0  0  0  0  0  0  0
   12.3730   16.8000   33.4170 C   0  0  0  0  0  0  0  0  0  0  0  0
   11.2520   16.2700   32.7750 C   0  0  0  0  0  0  0  0  0  0  0  0
   10.3984   13.8631   35.0429 H   0  0  0  0  0  0  0  0  0  0  0  0
   12.4240   14.7879   36.1809 H   0  0  0  0  0  0  0  0  0  0  0  0
   13.8996   18.9463   34.5752 H   0  0  0  0  0  0  0  0  0  0  0  0
   16.5086   19.6240   37.3239 H   0  0  0  0  0  0  0  0  0  0  0  0
   16.9929   19.5674   35.5615 H   0  0  0  0  0  0  0  0  0  0  0  0
   15.0540   20.9520   35.0980 H   0  0  0  0  0  0  0  0  0  0  0  0
   17.1642   22.0469   37.6260 H   0  0  0  0  0  0  0  0  0  0  0  0
   16.5888   23.8031   39.2925 H   0  0  0  0  0  0  0  0  0  0  0  0
   13.0021   21.7151   36.5494 H   0  0  0  0  0  0  0  0  0  0  0  0
   17.9820   15.9174   36.1828 H   0  0  0  0  0  0  0  0  0  0  0  0
   19.7546   15.3215   37.8258 H   0  0  0  0  0  0  0  0  0  0  0  0
   17.1645   16.5391   41.0560 H   0  0  0  0  0  0  0  0  0  0  0  0
   15.4044   17.1976   39.4090 H   0  0  0  0  0  0  0  0  0  0  0  0
   12.9355   17.6203   32.9472 H   0  0  0  0  0  0  0  0  0  0  0  0
   10.9328   16.6801   31.8055 H   0  0  0  0  0  0  0  0  0  0  0  0
  1  2  2  0
  2  3  1  0
  2  4  1  0
  4  5  2  0
  5  6  1  0
  6  7  2  0
  7  8  1  0
  8  9  1  0
  9 10  2  0
 10 11  1  0
 11 12  1  0
 12 13  1  0
 13 14  2  0
 14 15  1  0
 15 16  2  0
 16 17  1  0
 16 18  1  0
 18 19  1  0
 19 20  1  0
 19 21  1  0
 19 22  1  0
 18 23  2  0
 10 24  1  0
 24 25  1  0
 25 26  2  0
 26 27  1  0
 27 28  2  0
 28 29  1  0
 28 30  1  0
 30 31  2  0
 24 32  2  0
  7 33  1  0
 33 34  2  0
 34  4  1  0
 32  8  1  0
 23 13  1  0
 31 25  1  0
  5 35  1  0
  6 36  1  0
  9 37  1  0
 11 38  1  0
 11 39  1  0
 12 40  1  0
 14 41  1  0
 15 42  1  0
 23 43  1  0
 26 44  1  0
 27 45  1  0
 30 46  1  0
 31 47  1  0
 33 48  1  0
 34 49  1  0
M  CHG  1   3  -1
M  END
>  <meeko>  (7) 
{"is_sidechain": [false], "free_energy": -8.699, "intermolecular_energy": -12.341, "internal_energy": -1.333}

> <PREPARED_BY>
siam chowdhury
Computational and Medicinal Chemistry
[Dr. Alam's Research Team] www.alamresearch.org
Arkansas State University

$$$$
22sa23_out
     RDKit          3D

 49 52  0  0  0  0  0  0  0  0999 V2000
   10.7360   25.6680   37.7170 O   0  0  0  0  0  0  0  0  0  0  0  0
   10.6480   24.5690   38.2340 C   0  0  0  0  0  0  0  0  0  0  0  0
    9.6900   24.2570   39.1280 O   0  0  0  0  0  0  0  0  0  0  0  0
   11.5710   23.4520   37.8990 C   0  0  0  0  0  0  0  0  0  0  0  0
   12.1390   23.2780   36.6300 C   0  0  0  0  0  0  0  0  0  0  0  0
   12.9400   22.1570   36.3630 C   0  0  0  0  0  0  0  0  0  0  0  0
   13.1590   21.1940   37.3570 C   0  0  0  0  0  0  0  0  0  0  0  0
   13.9040   20.0140   37.0620 N   0  0  0  0  0  0  0  0  0  0  0  0
   13.7690   19.2210   35.9530 C   0  0  0  0  0  0  0  0  0  0  0  0
   14.6890   18.2020   36.0590 C   0  0  0  0  0  0  0  0  0  0  0  0
   14.8890   17.1200   35.0570 C   0  0  0  0  0  0  0  0  0  0  0  0
   14.4950   15.8000   35.5320 N   0  0  0  0  0  0  0  0  0  0  0  0
   13.1740   15.3790   35.4950 C   0  0  0  0  0  0  0  0  0  0  0  0
   12.4900   14.9010   36.6180 C   0  0  0  0  0  0  0  0  0  0  0  0
   11.1350   14.5760   36.5510 C   0  0  0  0  0  0  0  0  0  0  0  0
   10.4380   14.7580   35.3640 C   0  0  0  0  0  0  0  0  0  0  0  0
    9.1370   14.4460   35.3400 F   0  0  0  0  0  0  0  0  0  0  0  0
   11.0690   15.2640   34.2350 C   0  0  0  0  0  0  0  0  0  0  0  0
   10.3130   15.4990   32.9640 C   0  0  0  0  0  0  0  0  0  0  0  0
    8.9680   15.6440   33.1070 F   0  0  0  0  0  0  0  0  0  0  0  0
   10.7380   16.6220   32.3150 F   0  0  0  0  0  0  0  0  0  0  0  0
   10.4800   14.4800   32.0740 F   0  0  0  0  0  0  0  0  0  0  0  0
   12.4400   15.5760   34.3150 C   0  0  0  0  0  0  0  0  0  0  0  0
   15.3530   18.4370   37.3000 C   0  0  0  0  0  0  0  0  0  0  0  0
   16.4140   17.6320   37.9280 C   0  0  0  0  0  0  0  0  0  0  0  0
   17.7720   17.8960   37.6730 C   0  0  0  0  0  0  0  0  0  0  0  0
   18.7840   17.1690   38.3000 C   0  0  0  0  0  0  0  0  0  0  0  0
   18.4450   16.1420   39.1700 C   0  0  0  0  0  0  0  0  0  0  0  0
   19.4130   15.4370   39.7660 F   0  0  0  0  0  0  0  0  0  0  0  0
   17.1130   15.8370   39.4210 C   0  0  0  0  0  0  0  0  0  0  0  0
   16.0980   16.5810   38.8030 C   0  0  0  0  0  0  0  0  0  0  0  0
   14.8880   19.5590   37.8780 N   0  0  0  0  0  0  0  0  0  0  0  0
   12.6080   21.3860   38.6330 C   0  0  0  0  0  0  0  0  0  0  0  0
   11.8170   22.5060   38.8990 C   0  0  0  0  0  0  0  0  0  0  0  0
   11.9566   24.0222   35.8408 H   0  0  0  0  0  0  0  0  0  0  0  0
   13.3974   22.0339   35.3702 H   0  0  0  0  0  0  0  0  0  0  0  0
   13.0561   19.3709   35.1288 H   0  0  0  0  0  0  0  0  0  0  0  0
   14.2931   17.3596   34.1639 H   0  0  0  0  0  0  0  0  0  0  0  0
   15.9672   17.0756   34.8435 H   0  0  0  0  0  0  0  0  0  0  0  0
   15.1830   15.1930   35.8890 H   0  0  0  0  0  0  0  0  0  0  0  0
   13.0293   14.7795   37.5690 H   0  0  0  0  0  0  0  0  0  0  0  0
   10.6197   14.1763   37.4369 H   0  0  0  0  0  0  0  0  0  0  0  0
   12.9489   15.9848   33.4296 H   0  0  0  0  0  0  0  0  0  0  0  0
   18.0416   18.6927   36.9641 H   0  0  0  0  0  0  0  0  0  0  0  0
   19.8404   17.4073   38.1068 H   0  0  0  0  0  0  0  0  0  0  0  0
   16.8553   15.0135   40.1032 H   0  0  0  0  0  0  0  0  0  0  0  0
   15.0443   16.3388   39.0057 H   0  0  0  0  0  0  0  0  0  0  0  0
   12.8000   20.6505   39.4281 H   0  0  0  0  0  0  0  0  0  0  0  0
   11.3850   22.6447   39.9011 H   0  0  0  0  0  0  0  0  0  0  0  0
  1  2  2  0
  2  3  1  0
  2  4  1  0
  4  5  2  0
  5  6  1  0
  6  7  2  0
  7  8  1  0
  8  9  1  0
  9 10  2  0
 10 11  1  0
 11 12  1  0
 12 13  1  0
 13 14  2  0
 14 15  1  0
 15 16  2  0
 16 17  1  0
 16 18  1  0
 18 19  1  0
 19 20  1  0
 19 21  1  0
 19 22  1  0
 18 23  2  0
 10 24  1  0
 24 25  1  0
 25 26  2  0
 26 27  1  0
 27 28  2  0
 28 29  1  0
 28 30  1  0
 30 31  2  0
 24 32  2  0
  7 33  1  0
 33 34  2  0
 34  4  1  0
 32  8  1  0
 23 13  1  0
 31 25  1  0
  5 35  1  0
  6 36  1  0
  9 37  1  0
 11 38  1  0
 11 39  1  0
 12 40  1  0
 14 41  1  0
 15 42  1  0
 23 43  1  0
 26 44  1  0
 27 45  1  0
 30 46  1  0
 31 47  1  0
 33 48  1  0
 34 49  1  0
M  CHG  1   3  -1
M  END
>  <meeko>  (8) 
{"is_sidechain": [false], "free_energy": -8.575, "intermolecular_energy": -12.106, "internal_energy": -1.393}

> <PREPARED_BY>
siam chowdhury
Computational and Medicinal Chemistry
[Dr. Alam's Research Team] www.alamresearch.org
Arkansas State University

$$$$
22sa23_out
     RDKit          3D

 49 52  0  0  0  0  0  0  0  0999 V2000
    5.3040   13.9300   32.1460 O   0  0  0  0  0  0  0  0  0  0  0  0
    6.2740   14.1500   31.4450 C   0  0  0  0  0  0  0  0  0  0  0  0
    6.2310   14.1000   30.1000 O   0  0  0  0  0  0  0  0  0  0  0  0
    7.5960   14.5340   32.0080 C   0  0  0  0  0  0  0  0  0  0  0  0
    7.8680   14.5580   33.3830 C   0  0  0  0  0  0  0  0  0  0  0  0
    9.1150   15.0060   33.8470 C   0  0  0  0  0  0  0  0  0  0  0  0
   10.0870   15.4520   32.9420 C   0  0  0  0  0  0  0  0  0  0  0  0
   11.3210   15.9840   33.4170 N   0  0  0  0  0  0  0  0  0  0  0  0
   12.0710   16.9610   32.8190 C   0  0  0  0  0  0  0  0  0  0  0  0
   13.1720   17.1840   33.6160 C   0  0  0  0  0  0  0  0  0  0  0  0
   14.2430   18.1800   33.3400 C   0  0  0  0  0  0  0  0  0  0  0  0
   14.1400   19.3910   34.1440 N   0  0  0  0  0  0  0  0  0  0  0  0
   14.7610   19.4980   35.3800 C   0  0  0  0  0  0  0  0  0  0  0  0
   16.0630   19.0460   35.6240 C   0  0  0  0  0  0  0  0  0  0  0  0
   16.6780   19.2600   36.8580 C   0  0  0  0  0  0  0  0  0  0  0  0
   16.0080   19.9590   37.8530 C   0  0  0  0  0  0  0  0  0  0  0  0
   16.6330   20.1550   39.0200 F   0  0  0  0  0  0  0  0  0  0  0  0
   14.7290   20.4570   37.6400 C   0  0  0  0  0  0  0  0  0  0  0  0
   14.0180   21.2450   38.6960 C   0  0  0  0  0  0  0  0  0  0  0  0
   14.8000   22.1040   39.4040 F   0  0  0  0  0  0  0  0  0  0  0  0
   13.0120   22.0060   38.1770 F   0  0  0  0  0  0  0  0  0  0  0  0
   13.4240   20.4400   39.6220 F   0  0  0  0  0  0  0  0  0  0  0  0
   14.1170   20.2230   36.3940 C   0  0  0  0  0  0  0  0  0  0  0  0
   13.0280   16.2690   34.7010 C   0  0  0  0  0  0  0  0  0  0  0  0
   13.9420   16.0570   35.8370 C   0  0  0  0  0  0  0  0  0  0  0  0
   15.1160   15.2970   35.6910 C   0  0  0  0  0  0  0  0  0  0  0  0
   16.0100   15.1300   36.7480 C   0  0  0  0  0  0  0  0  0  0  0  0
   15.7210   15.7000   37.9800 C   0  0  0  0  0  0  0  0  0  0  0  0
   16.5720   15.5340   38.9990 F   0  0  0  0  0  0  0  0  0  0  0  0
   14.5550   16.4320   38.1660 C   0  0  0  0  0  0  0  0  0  0  0  0
   13.6660   16.6140   37.0960 C   0  0  0  0  0  0  0  0  0  0  0  0
   11.8830   15.5730   34.5820 N   0  0  0  0  0  0  0  0  0  0  0  0
    9.8170   15.4010   31.5650 C   0  0  0  0  0  0  0  0  0  0  0  0
    8.5790   14.9490   31.1050 C   0  0  0  0  0  0  0  0  0  0  0  0
    7.1029   14.2252   34.0998 H   0  0  0  0  0  0  0  0  0  0  0  0
    9.3298   15.0068   34.9258 H   0  0  0  0  0  0  0  0  0  0  0  0
   11.8370   17.4741   31.8746 H   0  0  0  0  0  0  0  0  0  0  0  0
   15.2158   17.7092   33.5448 H   0  0  0  0  0  0  0  0  0  0  0  0
   14.1358   18.4832   32.2881 H   0  0  0  0  0  0  0  0  0  0  0  0
   13.6160   20.1510   33.8020 H   0  0  0  0  0  0  0  0  0  0  0  0
   16.6095   18.5142   34.8312 H   0  0  0  0  0  0  0  0  0  0  0  0
   17.6920   18.8755   37.0422 H   0  0  0  0  0  0  0  0  0  0  0  0
   13.1073   20.6190   36.2105 H   0  0  0  0  0  0  0  0  0  0  0  0
   15.3339   14.8240   34.7221 H   0  0  0  0  0  0  0  0  0  0  0  0
   16.9353   14.5521   36.6068 H   0  0  0  0  0  0  0  0  0  0  0  0
   14.3292   16.8681   39.1503 H   0  0  0  0  0  0  0  0  0  0  0  0
   12.7455   17.1977   37.2446 H   0  0  0  0  0  0  0  0  0  0  0  0
   10.5853   15.7190   30.8448 H   0  0  0  0  0  0  0  0  0  0  0  0
    8.3756   14.9192   30.0244 H   0  0  0  0  0  0  0  0  0  0  0  0
  1  2  2  0
  2  3  1  0
  2  4  1  0
  4  5  2  0
  5  6  1  0
  6  7  2  0
  7  8  1  0
  8  9  1  0
  9 10  2  0
 10 11  1  0
 11 12  1  0
 12 13  1  0
 13 14  2  0
 14 15  1  0
 15 16  2  0
 16 17  1  0
 16 18  1  0
 18 19  1  0
 19 20  1  0
 19 21  1  0
 19 22  1  0
 18 23  2  0
 10 24  1  0
 24 25  1  0
 25 26  2  0
 26 27  1  0
 27 28  2  0
 28 29  1  0
 28 30  1  0
 30 31  2  0
 24 32  2  0
  7 33  1  0
 33 34  2  0
 34  4  1  0
 32  8  1  0
 23 13  1  0
 31 25  1  0
  5 35  1  0
  6 36  1  0
  9 37  1  0
 11 38  1  0
 11 39  1  0
 12 40  1  0
 14 41  1  0
 15 42  1  0
 23 43  1  0
 26 44  1  0
 27 45  1  0
 30 46  1  0
 31 47  1  0
 33 48  1  0
 34 49  1  0
M  CHG  1   3  -1
M  END
>  <meeko>  (9) 
{"is_sidechain": [false], "free_energy": -8.532, "intermolecular_energy": -10.904, "internal_energy": -2.534}

> <PREPARED_BY>
siam chowdhury
Computational and Medicinal Chemistry
[Dr. Alam's Research Team] www.alamresearch.org
Arkansas State University

$$$$
22sa23_out
     RDKit          3D

 49 52  0  0  0  0  0  0  0  0999 V2000
   17.6690   15.7080   40.7400 O   0  0  0  0  0  0  0  0  0  0  0  0
   18.0810   16.1120   39.6680 C   0  0  0  0  0  0  0  0  0  0  0  0
   19.0340   15.4720   38.9640 O   0  0  0  0  0  0  0  0  0  0  0  0
   17.5450   17.3350   39.0140 C   0  0  0  0  0  0  0  0  0  0  0  0
   16.4350   18.0420   39.4980 C   0  0  0  0  0  0  0  0  0  0  0  0
   15.9360   19.1440   38.7860 C   0  0  0  0  0  0  0  0  0  0  0  0
   16.5290   19.5310   37.5770 C   0  0  0  0  0  0  0  0  0  0  0  0
   15.9710   20.5980   36.8130 N   0  0  0  0  0  0  0  0  0  0  0  0
   15.7770   21.8870   37.2340 C   0  0  0  0  0  0  0  0  0  0  0  0
   15.2330   22.5880   36.1810 C   0  0  0  0  0  0  0  0  0  0  0  0
   14.8760   24.0330   36.2060 C   0  0  0  0  0  0  0  0  0  0  0  0
   14.4860   24.5180   37.5240 N   0  0  0  0  0  0  0  0  0  0  0  0
   13.1820   24.4050   37.9830 C   0  0  0  0  0  0  0  0  0  0  0  0
   12.0870   24.9800   37.3290 C   0  0  0  0  0  0  0  0  0  0  0  0
   10.7850   24.7620   37.7790 C   0  0  0  0  0  0  0  0  0  0  0  0
   10.5600   23.9350   38.8710 C   0  0  0  0  0  0  0  0  0  0  0  0
    9.2970   23.7400   39.2670 F   0  0  0  0  0  0  0  0  0  0  0  0
   11.6150   23.3150   39.5270 C   0  0  0  0  0  0  0  0  0  0  0  0
   11.3750   22.3920   40.6820 C   0  0  0  0  0  0  0  0  0  0  0  0
   10.6350   21.2860   40.3960 F   0  0  0  0  0  0  0  0  0  0  0  0
   12.5400   21.9270   41.2170 F   0  0  0  0  0  0  0  0  0  0  0  0
   10.7260   23.0130   41.7070 F   0  0  0  0  0  0  0  0  0  0  0  0
   12.9240   23.5550   39.0690 C   0  0  0  0  0  0  0  0  0  0  0  0
   15.1060   21.6300   35.1310 C   0  0  0  0  0  0  0  0  0  0  0  0
   14.5520   21.8310   33.7810 C   0  0  0  0  0  0  0  0  0  0  0  0
   13.1660   21.9750   33.5810 C   0  0  0  0  0  0  0  0  0  0  0  0
   12.6370   22.2120   32.3120 C   0  0  0  0  0  0  0  0  0  0  0  0
   13.4900   22.2760   31.2200 C   0  0  0  0  0  0  0  0  0  0  0  0
   12.9840   22.4940   30.0010 F   0  0  0  0  0  0  0  0  0  0  0  0
   14.8600   22.1090   31.3800 C   0  0  0  0  0  0  0  0  0  0  0  0
   15.3920   21.8890   32.6580 C   0  0  0  0  0  0  0  0  0  0  0  0
   15.5900   20.4370   35.5200 N   0  0  0  0  0  0  0  0  0  0  0  0
   17.6550   18.8350   37.1110 C   0  0  0  0  0  0  0  0  0  0  0  0
   18.1550   17.7430   37.8250 C   0  0  0  0  0  0  0  0  0  0  0  0
   15.9542   17.7324   40.4377 H   0  0  0  0  0  0  0  0  0  0  0  0
   15.0759   19.7060   39.1788 H   0  0  0  0  0  0  0  0  0  0  0  0
   16.0126   22.2885   38.2306 H   0  0  0  0  0  0  0  0  0  0  0  0
   15.7478   24.6119   35.8670 H   0  0  0  0  0  0  0  0  0  0  0  0
   14.0050   24.1602   35.5463 H   0  0  0  0  0  0  0  0  0  0  0  0
   15.1650   24.9350   38.1020 H   0  0  0  0  0  0  0  0  0  0  0  0
   12.2556   25.6140   36.4460 H   0  0  0  0  0  0  0  0  0  0  0  0
    9.9379   25.2445   37.2695 H   0  0  0  0  0  0  0  0  0  0  0  0
   13.7672   23.0631   39.5760 H   0  0  0  0  0  0  0  0  0  0  0  0
   12.4864   21.8991   34.4426 H   0  0  0  0  0  0  0  0  0  0  0  0
   11.5535   22.3469   32.1786 H   0  0  0  0  0  0  0  0  0  0  0  0
   15.5259   22.1494   30.5054 H   0  0  0  0  0  0  0  0  0  0  0  0
   16.4774   21.7607   32.7819 H   0  0  0  0  0  0  0  0  0  0  0  0
   18.1464   19.1508   36.1789 H   0  0  0  0  0  0  0  0  0  0  0  0
   19.0349   17.2008   37.4485 H   0  0  0  0  0  0  0  0  0  0  0  0
  1  2  2  0
  2  3  1  0
  2  4  1  0
  4  5  2  0
  5  6  1  0
  6  7  2  0
  7  8  1  0
  8  9  1  0
  9 10  2  0
 10 11  1  0
 11 12  1  0
 12 13  1  0
 13 14  2  0
 14 15  1  0
 15 16  2  0
 16 17  1  0
 16 18  1  0
 18 19  1  0
 19 20  1  0
 19 21  1  0
 19 22  1  0
 18 23  2  0
 10 24  1  0
 24 25  1  0
 25 26  2  0
 26 27  1  0
 27 28  2  0
 28 29  1  0
 28 30  1  0
 30 31  2  0
 24 32  2  0
  7 33  1  0
 33 34  2  0
 34  4  1  0
 32  8  1  0
 23 13  1  0
 31 25  1  0
  5 35  1  0
  6 36  1  0
  9 37  1  0
 11 38  1  0
 11 39  1  0
 12 40  1  0
 14 41  1  0
 15 42  1  0
 23 43  1  0
 26 44  1  0
 27 45  1  0
 30 46  1  0
 31 47  1  0
 33 48  1  0
 34 49  1  0
M  CHG  1   3  -1
M  END
>  <meeko>  (10) 
{"is_sidechain": [false], "free_energy": -8.52, "intermolecular_energy": -11.82, "internal_energy": -1.601}

> <PREPARED_BY>
siam chowdhury
Computational and Medicinal Chemistry
[Dr. Alam's Research Team] www.alamresearch.org
Arkansas State University

$$$$
22sa23_out
     RDKit          3D

 49 52  0  0  0  0  0  0  0  0999 V2000
   12.5190   22.1520   42.7250 O   0  0  0  0  0  0  0  0  0  0  0  0
   11.8770   22.2690   41.6980 C   0  0  0  0  0  0  0  0  0  0  0  0
   10.6810   22.8870   41.6520 O   0  0  0  0  0  0  0  0  0  0  0  0
   12.3690   21.7720   40.3860 C   0  0  0  0  0  0  0  0  0  0  0  0
   11.8860   22.2410   39.1560 C   0  0  0  0  0  0  0  0  0  0  0  0
   12.3410   21.6710   37.9570 C   0  0  0  0  0  0  0  0  0  0  0  0
   13.2620   20.6160   37.9810 C   0  0  0  0  0  0  0  0  0  0  0  0
   13.6620   19.9820   36.7680 N   0  0  0  0  0  0  0  0  0  0  0  0
   13.8510   18.6400   36.5740 C   0  0  0  0  0  0  0  0  0  0  0  0
   14.2150   18.4590   35.2590 C   0  0  0  0  0  0  0  0  0  0  0  0
   14.5050   17.1450   34.6220 C   0  0  0  0  0  0  0  0  0  0  0  0
   14.0540   16.0020   35.4040 N   0  0  0  0  0  0  0  0  0  0  0  0
   12.7640   15.5050   35.2870 C   0  0  0  0  0  0  0  0  0  0  0  0
   12.0380   14.9960   36.3700 C   0  0  0  0  0  0  0  0  0  0  0  0
   10.7110   14.5930   36.2200 C   0  0  0  0  0  0  0  0  0  0  0  0
   10.0820   14.7260   34.9900 C   0  0  0  0  0  0  0  0  0  0  0  0
    8.8060   14.3400   34.8870 F   0  0  0  0  0  0  0  0  0  0  0  0
   10.7540   15.2600   33.8980 C   0  0  0  0  0  0  0  0  0  0  0  0
   10.0690   15.4410   32.5790 C   0  0  0  0  0  0  0  0  0  0  0  0
   10.2290   14.4180   31.6970 F   0  0  0  0  0  0  0  0  0  0  0  0
    8.7210   15.5990   32.7190 F   0  0  0  0  0  0  0  0  0  0  0  0
   10.5000   16.5580   31.9270 F   0  0  0  0  0  0  0  0  0  0  0  0
   12.0970   15.6510   34.0610 C   0  0  0  0  0  0  0  0  0  0  0  0
   14.2430   19.7730   34.7030 C   0  0  0  0  0  0  0  0  0  0  0  0
   14.6000   20.1720   33.3310 C   0  0  0  0  0  0  0  0  0  0  0  0
   13.6830   20.8600   32.5150 C   0  0  0  0  0  0  0  0  0  0  0  0
   14.0290   21.2820   31.2310 C   0  0  0  0  0  0  0  0  0  0  0  0
   15.2920   20.9910   30.7360 C   0  0  0  0  0  0  0  0  0  0  0  0
   15.6230   21.3860   29.5020 F   0  0  0  0  0  0  0  0  0  0  0  0
   16.2100   20.2870   31.5050 C   0  0  0  0  0  0  0  0  0  0  0  0
   15.8670   19.8790   32.8020 C   0  0  0  0  0  0  0  0  0  0  0  0
   13.8710   20.6810   35.6240 N   0  0  0  0  0  0  0  0  0  0  0  0
   13.7610   20.1680   39.2150 C   0  0  0  0  0  0  0  0  0  0  0  0
   13.3130   20.7410   40.4070 C   0  0  0  0  0  0  0  0  0  0  0  0
   11.1491   23.0573   39.1308 H   0  0  0  0  0  0  0  0  0  0  0  0
   11.9727   22.0545   36.9940 H   0  0  0  0  0  0  0  0  0  0  0  0
   13.7334   17.8505   37.3309 H   0  0  0  0  0  0  0  0  0  0  0  0
   14.0037   17.1155   33.6433 H   0  0  0  0  0  0  0  0  0  0  0  0
   15.5987   17.0641   34.5365 H   0  0  0  0  0  0  0  0  0  0  0  0
   14.6800   15.5720   36.0300 H   0  0  0  0  0  0  0  0  0  0  0  0
   12.5213   14.9125   37.3546 H   0  0  0  0  0  0  0  0  0  0  0  0
   10.1638   14.1703   37.0755 H   0  0  0  0  0  0  0  0  0  0  0  0
   12.6372   16.0820   33.2052 H   0  0  0  0  0  0  0  0  0  0  0  0
   12.6730   21.0693   32.8972 H   0  0  0  0  0  0  0  0  0  0  0  0
   13.3071   21.8403   30.6168 H   0  0  0  0  0  0  0  0  0  0  0  0
   17.2038   20.0501   31.0974 H   0  0  0  0  0  0  0  0  0  0  0  0
   16.5969   19.3246   33.4102 H   0  0  0  0  0  0  0  0  0  0  0  0
   14.5086   19.3616   39.2427 H   0  0  0  0  0  0  0  0  0  0  0  0
   13.7054   20.3788   41.3687 H   0  0  0  0  0  0  0  0  0  0  0  0
  1  2  2  0
  2  3  1  0
  2  4  1  0
  4  5  2  0
  5  6  1  0
  6  7  2  0
  7  8  1  0
  8  9  1  0
  9 10  2  0
 10 11  1  0
 11 12  1  0
 12 13  1  0
 13 14  2  0
 14 15  1  0
 15 16  2  0
 16 17  1  0
 16 18  1  0
 18 19  1  0
 19 20  1  0
 19 21  1  0
 19 22  1  0
 18 23  2  0
 10 24  1  0
 24 25  1  0
 25 26  2  0
 26 27  1  0
 27 28  2  0
 28 29  1  0
 28 30  1  0
 30 31  2  0
 24 32  2  0
  7 33  1  0
 33 34  2  0
 34  4  1  0
 32  8  1  0
 23 13  1  0
 31 25  1  0
  5 35  1  0
  6 36  1  0
  9 37  1  0
 11 38  1  0
 11 39  1  0
 12 40  1  0
 14 41  1  0
 15 42  1  0
 23 43  1  0
 26 44  1  0
 27 45  1  0
 30 46  1  0
 31 47  1  0
 33 48  1  0
 34 49  1  0
M  CHG  1   3  -1
M  END
>  <meeko>  (11) 
{"is_sidechain": [false], "free_energy": -8.418, "intermolecular_energy": -12.053, "internal_energy": -1.225}

> <PREPARED_BY>
siam chowdhury
Computational and Medicinal Chemistry
[Dr. Alam's Research Team] www.alamresearch.org
Arkansas State University

$$$$
22sa23_out
     RDKit          3D

 49 52  0  0  0  0  0  0  0  0999 V2000
    6.6400   14.1980   30.9380 O   0  0  0  0  0  0  0  0  0  0  0  0
    6.8640   14.3690   32.1220 C   0  0  0  0  0  0  0  0  0  0  0  0
    5.9270   14.2000   33.0740 O   0  0  0  0  0  0  0  0  0  0  0  0
    8.2080   14.7460   32.6350 C   0  0  0  0  0  0  0  0  0  0  0  0
    8.5960   14.5760   33.9710 C   0  0  0  0  0  0  0  0  0  0  0  0
    9.8540   15.0260   34.4020 C   0  0  0  0  0  0  0  0  0  0  0  0
   10.7190   15.6690   33.5070 C   0  0  0  0  0  0  0  0  0  0  0  0
   11.9610   16.2000   33.9640 N   0  0  0  0  0  0  0  0  0  0  0  0
   12.7860   17.0490   33.2760 C   0  0  0  0  0  0  0  0  0  0  0  0
   13.8650   17.3250   34.0860 C   0  0  0  0  0  0  0  0  0  0  0  0
   14.9990   18.2210   33.7290 C   0  0  0  0  0  0  0  0  0  0  0  0
   14.7540   19.6250   34.0320 N   0  0  0  0  0  0  0  0  0  0  0  0
   14.9000   20.1280   35.3170 C   0  0  0  0  0  0  0  0  0  0  0  0
   13.8910   20.8300   35.9840 C   0  0  0  0  0  0  0  0  0  0  0  0
   14.0530   21.2360   37.3090 C   0  0  0  0  0  0  0  0  0  0  0  0
   15.2150   20.9120   37.9950 C   0  0  0  0  0  0  0  0  0  0  0  0
   15.3310   21.3080   39.2680 F   0  0  0  0  0  0  0  0  0  0  0  0
   16.2270   20.1850   37.3820 C   0  0  0  0  0  0  0  0  0  0  0  0
   17.4670   19.8000   38.1290 C   0  0  0  0  0  0  0  0  0  0  0  0
   17.2610   19.3060   39.3790 F   0  0  0  0  0  0  0  0  0  0  0  0
   18.1870   18.8460   37.4700 F   0  0  0  0  0  0  0  0  0  0  0  0
   18.3180   20.8540   38.2860 F   0  0  0  0  0  0  0  0  0  0  0  0
   16.0550   19.7930   36.0410 C   0  0  0  0  0  0  0  0  0  0  0  0
   13.6290   16.5740   35.2760 C   0  0  0  0  0  0  0  0  0  0  0  0
   14.4840   16.4750   36.4710 C   0  0  0  0  0  0  0  0  0  0  0  0
   15.6850   15.7420   36.4450 C   0  0  0  0  0  0  0  0  0  0  0  0
   16.5230   15.6810   37.5580 C   0  0  0  0  0  0  0  0  0  0  0  0
   16.1510   16.3300   38.7260 C   0  0  0  0  0  0  0  0  0  0  0  0
   16.9490   16.2670   39.7980 F   0  0  0  0  0  0  0  0  0  0  0  0
   14.9570   17.0380   38.7950 C   0  0  0  0  0  0  0  0  0  0  0  0
   14.1240   17.1130   37.6690 C   0  0  0  0  0  0  0  0  0  0  0  0
   12.4530   15.9250   35.1980 N   0  0  0  0  0  0  0  0  0  0  0  0
   10.3350   15.8130   32.1650 C   0  0  0  0  0  0  0  0  0  0  0  0
    9.0860   15.3580   31.7350 C   0  0  0  0  0  0  0  0  0  0  0  0
    7.9135   14.0891   34.6832 H   0  0  0  0  0  0  0  0  0  0  0  0
   10.1619   14.8731   35.4469 H   0  0  0  0  0  0  0  0  0  0  0  0
   12.6177   17.4394   32.2615 H   0  0  0  0  0  0  0  0  0  0  0  0
   15.8884   17.8951   34.2882 H   0  0  0  0  0  0  0  0  0  0  0  0
   15.1371   18.1465   32.6403 H   0  0  0  0  0  0  0  0  0  0  0  0
   14.4790   20.2320   33.3070 H   0  0  0  0  0  0  0  0  0  0  0  0
   12.9553   21.0657   35.4559 H   0  0  0  0  0  0  0  0  0  0  0  0
   13.2607   21.8122   37.8092 H   0  0  0  0  0  0  0  0  0  0  0  0
   16.8461   19.2091   35.5477 H   0  0  0  0  0  0  0  0  0  0  0  0
   15.9688   15.2058   35.5274 H   0  0  0  0  0  0  0  0  0  0  0  0
   17.4700   15.1235   37.5101 H   0  0  0  0  0  0  0  0  0  0  0  0
   14.6660   17.5383   39.7304 H   0  0  0  0  0  0  0  0  0  0  0  0
   13.1808   17.6763   37.7249 H   0  0  0  0  0  0  0  0  0  0  0  0
   11.0212   16.2868   31.4476 H   0  0  0  0  0  0  0  0  0  0  0  0
    8.7916   15.4819   30.6824 H   0  0  0  0  0  0  0  0  0  0  0  0
  1  2  2  0
  2  3  1  0
  2  4  1  0
  4  5  2  0
  5  6  1  0
  6  7  2  0
  7  8  1  0
  8  9  1  0
  9 10  2  0
 10 11  1  0
 11 12  1  0
 12 13  1  0
 13 14  2  0
 14 15  1  0
 15 16  2  0
 16 17  1  0
 16 18  1  0
 18 19  1  0
 19 20  1  0
 19 21  1  0
 19 22  1  0
 18 23  2  0
 10 24  1  0
 24 25  1  0
 25 26  2  0
 26 27  1  0
 27 28  2  0
 28 29  1  0
 28 30  1  0
 30 31  2  0
 24 32  2  0
  7 33  1  0
 33 34  2  0
 34  4  1  0
 32  8  1  0
 23 13  1  0
 31 25  1  0
  5 35  1  0
  6 36  1  0
  9 37  1  0
 11 38  1  0
 11 39  1  0
 12 40  1  0
 14 41  1  0
 15 42  1  0
 23 43  1  0
 26 44  1  0
 27 45  1  0
 30 46  1  0
 31 47  1  0
 33 48  1  0
 34 49  1  0
M  CHG  1   3  -1
M  END
>  <meeko>  (12) 
{"is_sidechain": [false], "free_energy": -8.386, "intermolecular_energy": -10.245, "internal_energy": -2.988}

> <PREPARED_BY>
siam chowdhury
Computational and Medicinal Chemistry
[Dr. Alam's Research Team] www.alamresearch.org
Arkansas State University

$$$$
22sa23_out
     RDKit          3D

 49 52  0  0  0  0  0  0  0  0999 V2000
    9.8990   20.6450   42.2470 O   0  0  0  0  0  0  0  0  0  0  0  0
   10.4220   21.6750   41.8620 C   0  0  0  0  0  0  0  0  0  0  0  0
   10.3730   22.8240   42.5620 O   0  0  0  0  0  0  0  0  0  0  0  0
   11.1980   21.7530   40.5970 C   0  0  0  0  0  0  0  0  0  0  0  0
   11.2400   22.8990   39.7900 C   0  0  0  0  0  0  0  0  0  0  0  0
   11.9310   22.8760   38.5680 C   0  0  0  0  0  0  0  0  0  0  0  0
   12.5650   21.7030   38.1370 C   0  0  0  0  0  0  0  0  0  0  0  0
   13.1960   21.6550   36.8590 N   0  0  0  0  0  0  0  0  0  0  0  0
   13.9200   20.6120   36.3470 C   0  0  0  0  0  0  0  0  0  0  0  0
   14.3340   20.9750   35.0860 C   0  0  0  0  0  0  0  0  0  0  0  0
   15.1410   20.1240   34.1690 C   0  0  0  0  0  0  0  0  0  0  0  0
   14.3380   19.3340   33.2450 N   0  0  0  0  0  0  0  0  0  0  0  0
   13.8060   18.1060   33.6100 C   0  0  0  0  0  0  0  0  0  0  0  0
   12.6300   17.5860   33.0590 C   0  0  0  0  0  0  0  0  0  0  0  0
   12.1850   16.3060   33.3920 C   0  0  0  0  0  0  0  0  0  0  0  0
   12.9320   15.5160   34.2550 C   0  0  0  0  0  0  0  0  0  0  0  0
   12.4800   14.2900   34.5420 F   0  0  0  0  0  0  0  0  0  0  0  0
   14.1240   15.9790   34.7960 C   0  0  0  0  0  0  0  0  0  0  0  0
   14.9530   15.1170   35.6970 C   0  0  0  0  0  0  0  0  0  0  0  0
   15.5790   14.0750   35.0870 F   0  0  0  0  0  0  0  0  0  0  0  0
   15.9390   15.8260   36.3190 F   0  0  0  0  0  0  0  0  0  0  0  0
   14.2130   14.5650   36.7000 F   0  0  0  0  0  0  0  0  0  0  0  0
   14.5540   17.2770   34.4610 C   0  0  0  0  0  0  0  0  0  0  0  0
   13.8250   22.2960   34.9000 C   0  0  0  0  0  0  0  0  0  0  0  0
   13.9970   23.1800   33.7350 C   0  0  0  0  0  0  0  0  0  0  0  0
   13.4890   22.8210   32.4730 C   0  0  0  0  0  0  0  0  0  0  0  0
   13.6060   23.6730   31.3740 C   0  0  0  0  0  0  0  0  0  0  0  0
   14.2640   24.8860   31.5210 C   0  0  0  0  0  0  0  0  0  0  0  0
   14.3850   25.7010   30.4670 F   0  0  0  0  0  0  0  0  0  0  0  0
   14.8020   25.2570   32.7470 C   0  0  0  0  0  0  0  0  0  0  0  0
   14.6680   24.4070   33.8540 C   0  0  0  0  0  0  0  0  0  0  0  0
   13.1080   22.6790   35.9730 N   0  0  0  0  0  0  0  0  0  0  0  0
   12.5410   20.5670   38.9610 C   0  0  0  0  0  0  0  0  0  0  0  0
   11.8590   20.5940   40.1800 C   0  0  0  0  0  0  0  0  0  0  0  0
   10.7304   23.8181   40.1151 H   0  0  0  0  0  0  0  0  0  0  0  0
   11.9749   23.7825   37.9464 H   0  0  0  0  0  0  0  0  0  0  0  0
   14.1321   19.6579   36.8516 H   0  0  0  0  0  0  0  0  0  0  0  0
   15.8038   20.7771   33.5823 H   0  0  0  0  0  0  0  0  0  0  0  0
   15.6997   19.4145   34.7971 H   0  0  0  0  0  0  0  0  0  0  0  0
   14.1690   19.6800   32.3390 H   0  0  0  0  0  0  0  0  0  0  0  0
   12.0472   18.1953   32.3525 H   0  0  0  0  0  0  0  0  0  0  0  0
   11.2434   15.9235   32.9711 H   0  0  0  0  0  0  0  0  0  0  0  0
   15.5010   17.6515   34.8770 H   0  0  0  0  0  0  0  0  0  0  0  0
   12.9893   21.8488   32.3501 H   0  0  0  0  0  0  0  0  0  0  0  0
   13.1809   23.3860   30.4009 H   0  0  0  0  0  0  0  0  0  0  0  0
   15.3319   26.2155   32.8490 H   0  0  0  0  0  0  0  0  0  0  0  0
   15.0925   24.7044   34.8242 H   0  0  0  0  0  0  0  0  0  0  0  0
   13.0618   19.6509   38.6454 H   0  0  0  0  0  0  0  0  0  0  0  0
   11.8420   19.6968   40.8162 H   0  0  0  0  0  0  0  0  0  0  0  0
  1  2  2  0
  2  3  1  0
  2  4  1  0
  4  5  2  0
  5  6  1  0
  6  7  2  0
  7  8  1  0
  8  9  1  0
  9 10  2  0
 10 11  1  0
 11 12  1  0
 12 13  1  0
 13 14  2  0
 14 15  1  0
 15 16  2  0
 16 17  1  0
 16 18  1  0
 18 19  1  0
 19 20  1  0
 19 21  1  0
 19 22  1  0
 18 23  2  0
 10 24  1  0
 24 25  1  0
 25 26  2  0
 26 27  1  0
 27 28  2  0
 28 29  1  0
 28 30  1  0
 30 31  2  0
 24 32  2  0
  7 33  1  0
 33 34  2  0
 34  4  1  0
 32  8  1  0
 23 13  1  0
 31 25  1  0
  5 35  1  0
  6 36  1  0
  9 37  1  0
 11 38  1  0
 11 39  1  0
 12 40  1  0
 14 41  1  0
 15 42  1  0
 23 43  1  0
 26 44  1  0
 27 45  1  0
 30 46  1  0
 31 47  1  0
 33 48  1  0
 34 49  1  0
M  CHG  1   3  -1
M  END
>  <meeko>  (13) 
{"is_sidechain": [false], "free_energy": -8.307, "intermolecular_energy": -11.67, "internal_energy": -1.451}

> <PREPARED_BY>
siam chowdhury
Computational and Medicinal Chemistry
[Dr. Alam's Research Team] www.alamresearch.org
Arkansas State University

$$$$
22sa23_out
     RDKit          3D

 49 52  0  0  0  0  0  0  0  0999 V2000
   16.4730   21.4690   28.9660 O   0  0  0  0  0  0  0  0  0  0  0  0
   15.7390   21.7940   29.8800 C   0  0  0  0  0  0  0  0  0  0  0  0
   14.6670   22.5910   29.7080 O   0  0  0  0  0  0  0  0  0  0  0  0
   15.9330   21.3100   31.2730 C   0  0  0  0  0  0  0  0  0  0  0  0
   16.0390   19.9530   31.6070 C   0  0  0  0  0  0  0  0  0  0  0  0
   16.1440   19.5650   32.9520 C   0  0  0  0  0  0  0  0  0  0  0  0
   16.1200   20.5280   33.9690 C   0  0  0  0  0  0  0  0  0  0  0  0
   16.1430   20.1290   35.3380 N   0  0  0  0  0  0  0  0  0  0  0  0
   15.4550   20.7120   36.3680 C   0  0  0  0  0  0  0  0  0  0  0  0
   15.7480   20.0070   37.5140 C   0  0  0  0  0  0  0  0  0  0  0  0
   15.1980   20.2990   38.8660 C   0  0  0  0  0  0  0  0  0  0  0  0
   15.0200   21.7210   39.1310 N   0  0  0  0  0  0  0  0  0  0  0  0
   13.7590   22.2790   39.2830 C   0  0  0  0  0  0  0  0  0  0  0  0
   13.1290   23.0310   38.2860 C   0  0  0  0  0  0  0  0  0  0  0  0
   11.8230   23.4940   38.4520 C   0  0  0  0  0  0  0  0  0  0  0  0
   11.1190   23.1800   39.6060 C   0  0  0  0  0  0  0  0  0  0  0  0
    9.8650   23.6320   39.7250 F   0  0  0  0  0  0  0  0  0  0  0  0
   11.6940   22.4060   40.6060 C   0  0  0  0  0  0  0  0  0  0  0  0
   10.9260   22.0330   41.8350 C   0  0  0  0  0  0  0  0  0  0  0  0
   11.6050   21.2690   42.7330 F   0  0  0  0  0  0  0  0  0  0  0  0
   10.5050   23.1290   42.5300 F   0  0  0  0  0  0  0  0  0  0  0  0
    9.7940   21.3330   41.5400 F   0  0  0  0  0  0  0  0  0  0  0  0
   13.0160   21.9560   40.4300 C   0  0  0  0  0  0  0  0  0  0  0  0
   16.6600   18.9920   37.0940 C   0  0  0  0  0  0  0  0  0  0  0  0
   17.3220   17.9690   37.9210 C   0  0  0  0  0  0  0  0  0  0  0  0
   16.5710   17.0500   38.6760 C   0  0  0  0  0  0  0  0  0  0  0  0
   17.1890   16.0480   39.4250 C   0  0  0  0  0  0  0  0  0  0  0  0
   18.5740   15.9750   39.4510 C   0  0  0  0  0  0  0  0  0  0  0  0
   19.1700   15.0210   40.1750 F   0  0  0  0  0  0  0  0  0  0  0  0
   19.3460   16.8850   38.7400 C   0  0  0  0  0  0  0  0  0  0  0  0
   18.7220   17.8810   37.9730 C   0  0  0  0  0  0  0  0  0  0  0  0
   16.8610   19.0600   35.7660 N   0  0  0  0  0  0  0  0  0  0  0  0
   16.0400   21.8870   33.6260 C   0  0  0  0  0  0  0  0  0  0  0  0
   15.9430   22.2720   32.2870 C   0  0  0  0  0  0  0  0  0  0  0  0
   16.0399   19.1907   30.8139 H   0  0  0  0  0  0  0  0  0  0  0  0
   16.2456   18.5001   33.2084 H   0  0  0  0  0  0  0  0  0  0  0  0
   14.7894   21.5846   36.2937 H   0  0  0  0  0  0  0  0  0  0  0  0
   14.2202   19.8035   38.9577 H   0  0  0  0  0  0  0  0  0  0  0  0
   15.9284   19.9243   39.5982 H   0  0  0  0  0  0  0  0  0  0  0  0
   15.8130   22.2990   39.2040 H   0  0  0  0  0  0  0  0  0  0  0  0
   13.6712   23.2610   37.3569 H   0  0  0  0  0  0  0  0  0  0  0  0
   11.3523   24.1070   37.6693 H   0  0  0  0  0  0  0  0  0  0  0  0
   13.4791   21.3352   41.2111 H   0  0  0  0  0  0  0  0  0  0  0  0
   15.4734   17.1228   38.6759 H   0  0  0  0  0  0  0  0  0  0  0  0
   16.5839   15.3231   39.9893 H   0  0  0  0  0  0  0  0  0  0  0  0
   20.4437   16.8251   38.7780 H   0  0  0  0  0  0  0  0  0  0  0  0
   19.3350   18.5986   37.4079 H   0  0  0  0  0  0  0  0  0  0  0  0
   16.0538   22.6525   34.4159 H   0  0  0  0  0  0  0  0  0  0  0  0
   15.8740   23.3390   32.0287 H   0  0  0  0  0  0  0  0  0  0  0  0
  1  2  2  0
  2  3  1  0
  2  4  1  0
  4  5  2  0
  5  6  1  0
  6  7  2  0
  7  8  1  0
  8  9  1  0
  9 10  2  0
 10 11  1  0
 11 12  1  0
 12 13  1  0
 13 14  2  0
 14 15  1  0
 15 16  2  0
 16 17  1  0
 16 18  1  0
 18 19  1  0
 19 20  1  0
 19 21  1  0
 19 22  1  0
 18 23  2  0
 10 24  1  0
 24 25  1  0
 25 26  2  0
 26 27  1  0
 27 28  2  0
 28 29  1  0
 28 30  1  0
 30 31  2  0
 24 32  2  0
  7 33  1  0
 33 34  2  0
 34  4  1  0
 32  8  1  0
 23 13  1  0
 31 25  1  0
  5 35  1  0
  6 36  1  0
  9 37  1  0
 11 38  1  0
 11 39  1  0
 12 40  1  0
 14 41  1  0
 15 42  1  0
 23 43  1  0
 26 44  1  0
 27 45  1  0
 30 46  1  0
 31 47  1  0
 33 48  1  0
 34 49  1  0
M  CHG  1   3  -1
M  END
>  <meeko>  (14) 
{"is_sidechain": [false], "free_energy": -8.164, "intermolecular_energy": -11.679, "internal_energy": -1.24}

> <PREPARED_BY>
siam chowdhury
Computational and Medicinal Chemistry
[Dr. Alam's Research Team] www.alamresearch.org
Arkansas State University

$$$$
22sa23_out
     RDKit          3D

 49 52  0  0  0  0  0  0  0  0999 V2000
   12.9280   22.8110   29.7820 O   0  0  0  0  0  0  0  0  0  0  0  0
   13.9860   22.5670   30.3340 C   0  0  0  0  0  0  0  0  0  0  0  0
   15.1740   22.6500   29.7040 O   0  0  0  0  0  0  0  0  0  0  0  0
   14.0710   22.1910   31.7690 C   0  0  0  0  0  0  0  0  0  0  0  0
   14.9670   21.2310   32.2610 C   0  0  0  0  0  0  0  0  0  0  0  0
   14.9390   20.8690   33.6160 C   0  0  0  0  0  0  0  0  0  0  0  0
   14.0010   21.4470   34.4820 C   0  0  0  0  0  0  0  0  0  0  0  0
   13.9180   21.0190   35.8400 N   0  0  0  0  0  0  0  0  0  0  0  0
   14.6050   19.9810   36.4110 C   0  0  0  0  0  0  0  0  0  0  0  0
   14.2420   19.9250   37.7380 C   0  0  0  0  0  0  0  0  0  0  0  0
   14.7660   18.9470   38.7300 C   0  0  0  0  0  0  0  0  0  0  0  0
   14.1530   17.6280   38.6330 N   0  0  0  0  0  0  0  0  0  0  0  0
   14.4310   16.7730   37.5770 C   0  0  0  0  0  0  0  0  0  0  0  0
   15.6200   16.0420   37.4750 C   0  0  0  0  0  0  0  0  0  0  0  0
   15.8140   15.1250   36.4420 C   0  0  0  0  0  0  0  0  0  0  0  0
   14.8040   14.9030   35.5160 C   0  0  0  0  0  0  0  0  0  0  0  0
   15.0210   14.0080   34.5450 F   0  0  0  0  0  0  0  0  0  0  0  0
   13.5940   15.5800   35.6010 C   0  0  0  0  0  0  0  0  0  0  0  0
   12.4880   15.3160   34.6270 C   0  0  0  0  0  0  0  0  0  0  0  0
   12.5760   14.1360   33.9550 F   0  0  0  0  0  0  0  0  0  0  0  0
   11.2650   15.3060   35.2310 F   0  0  0  0  0  0  0  0  0  0  0  0
   12.4110   16.2810   33.6660 F   0  0  0  0  0  0  0  0  0  0  0  0
   13.4180   16.5110   36.6420 C   0  0  0  0  0  0  0  0  0  0  0  0
   13.2920   20.9770   37.9020 C   0  0  0  0  0  0  0  0  0  0  0  0
   12.5540   21.3520   39.1200 C   0  0  0  0  0  0  0  0  0  0  0  0
   12.7620   20.6690   40.3320 C   0  0  0  0  0  0  0  0  0  0  0  0
   12.1010   21.0480   41.5010 C   0  0  0  0  0  0  0  0  0  0  0  0
   11.1970   22.0990   41.4620 C   0  0  0  0  0  0  0  0  0  0  0  0
   10.5560   22.4590   42.5800 F   0  0  0  0  0  0  0  0  0  0  0  0
   10.9470   22.7750   40.2740 C   0  0  0  0  0  0  0  0  0  0  0  0
   11.6250   22.4050   39.1040 C   0  0  0  0  0  0  0  0  0  0  0  0
   13.1330   21.6520   36.7490 N   0  0  0  0  0  0  0  0  0  0  0  0
   13.1230   22.4260   33.9890 C   0  0  0  0  0  0  0  0  0  0  0  0
   13.1580   22.7900   32.6420 C   0  0  0  0  0  0  0  0  0  0  0  0
   15.6938   20.7605   31.5825 H   0  0  0  0  0  0  0  0  0  0  0  0
   15.6561   20.1286   34.0002 H   0  0  0  0  0  0  0  0  0  0  0  0
   15.3167   19.3140   35.9025 H   0  0  0  0  0  0  0  0  0  0  0  0
   15.8492   18.8389   38.5722 H   0  0  0  0  0  0  0  0  0  0  0  0
   14.5244   19.3410   39.7282 H   0  0  0  0  0  0  0  0  0  0  0  0
   13.5270   17.3380   39.3350 H   0  0  0  0  0  0  0  0  0  0  0  0
   16.4140   16.1929   38.2212 H   0  0  0  0  0  0  0  0  0  0  0  0
   16.7654   14.5789   36.3613 H   0  0  0  0  0  0  0  0  0  0  0  0
   12.4612   17.0473   36.7247 H   0  0  0  0  0  0  0  0  0  0  0  0
   13.4598   19.8190   40.3588 H   0  0  0  0  0  0  0  0  0  0  0  0
   12.2952   20.5179   42.4451 H   0  0  0  0  0  0  0  0  0  0  0  0
   10.2185   23.5989   40.2516 H   0  0  0  0  0  0  0  0  0  0  0  0
   11.4276   22.9440   38.1656 H   0  0  0  0  0  0  0  0  0  0  0  0
   12.4042   22.9083   34.6678 H   0  0  0  0  0  0  0  0  0  0  0  0
   12.4621   23.5538   32.2646 H   0  0  0  0  0  0  0  0  0  0  0  0
  1  2  2  0
  2  3  1  0
  2  4  1  0
  4  5  2  0
  5  6  1  0
  6  7  2  0
  7  8  1  0
  8  9  1  0
  9 10  2  0
 10 11  1  0
 11 12  1  0
 12 13  1  0
 13 14  2  0
 14 15  1  0
 15 16  2  0
 16 17  1  0
 16 18  1  0
 18 19  1  0
 19 20  1  0
 19 21  1  0
 19 22  1  0
 18 23  2  0
 10 24  1  0
 24 25  1  0
 25 26  2  0
 26 27  1  0
 27 28  2  0
 28 29  1  0
 28 30  1  0
 30 31  2  0
 24 32  2  0
  7 33  1  0
 33 34  2  0
 34  4  1  0
 32  8  1  0
 23 13  1  0
 31 25  1  0
  5 35  1  0
  6 36  1  0
  9 37  1  0
 11 38  1  0
 11 39  1  0
 12 40  1  0
 14 41  1  0
 15 42  1  0
 23 43  1  0
 26 44  1  0
 27 45  1  0
 30 46  1  0
 31 47  1  0
 33 48  1  0
 34 49  1  0
M  CHG  1   3  -1
M  END
>  <meeko>  (15) 
{"is_sidechain": [false], "free_energy": -8.102, "intermolecular_energy": -11.955, "internal_energy": -0.877}

> <PREPARED_BY>
siam chowdhury
Computational and Medicinal Chemistry
[Dr. Alam's Research Team] www.alamresearch.org
Arkansas State University

$$$$
22sa23_out
     RDKit          3D

 49 52  0  0  0  0  0  0  0  0999 V2000
    9.2760   24.2120   39.3190 O   0  0  0  0  0  0  0  0  0  0  0  0
   10.0450   24.6000   38.4580 C   0  0  0  0  0  0  0  0  0  0  0  0
    9.9430   25.8120   37.8810 O   0  0  0  0  0  0  0  0  0  0  0  0
   11.1940   23.7840   37.9860 C   0  0  0  0  0  0  0  0  0  0  0  0
   11.6720   23.8170   36.6680 C   0  0  0  0  0  0  0  0  0  0  0  0
   12.7120   22.9620   36.2730 C   0  0  0  0  0  0  0  0  0  0  0  0
   13.2640   22.0540   37.1860 C   0  0  0  0  0  0  0  0  0  0  0  0
   14.2630   21.1280   36.7630 N   0  0  0  0  0  0  0  0  0  0  0  0
   14.7920   21.0180   35.5040 C   0  0  0  0  0  0  0  0  0  0  0  0
   15.7330   20.0140   35.5360 C   0  0  0  0  0  0  0  0  0  0  0  0
   16.5580   19.5740   34.3780 C   0  0  0  0  0  0  0  0  0  0  0  0
   15.7870   19.3400   33.1640 N   0  0  0  0  0  0  0  0  0  0  0  0
   14.5930   18.6360   33.1860 C   0  0  0  0  0  0  0  0  0  0  0  0
   13.5100   18.9370   32.3520 C   0  0  0  0  0  0  0  0  0  0  0  0
   12.3640   18.1420   32.3450 C   0  0  0  0  0  0  0  0  0  0  0  0
   12.3010   17.0130   33.1500 C   0  0  0  0  0  0  0  0  0  0  0  0
   11.1910   16.2670   33.1100 F   0  0  0  0  0  0  0  0  0  0  0  0
   13.3670   16.6560   33.9660 C   0  0  0  0  0  0  0  0  0  0  0  0
   13.3200   15.4190   34.8080 C   0  0  0  0  0  0  0  0  0  0  0  0
   14.3890   15.2340   35.6280 F   0  0  0  0  0  0  0  0  0  0  0  0
   12.2240   15.3930   35.6210 F   0  0  0  0  0  0  0  0  0  0  0  0
   13.2370   14.2880   34.0510 F   0  0  0  0  0  0  0  0  0  0  0  0
   14.5120   17.4760   33.9710 C   0  0  0  0  0  0  0  0  0  0  0  0
   15.7090   19.5350   36.8800 C   0  0  0  0  0  0  0  0  0  0  0  0
   16.4980   18.4380   37.4670 C   0  0  0  0  0  0  0  0  0  0  0  0
   17.8980   18.5300   37.5750 C   0  0  0  0  0  0  0  0  0  0  0  0
   18.6490   17.5170   38.1720 C   0  0  0  0  0  0  0  0  0  0  0  0
   18.0060   16.3800   38.6410 C   0  0  0  0  0  0  0  0  0  0  0  0
   18.7240   15.4030   39.2060 F   0  0  0  0  0  0  0  0  0  0  0  0
   16.6280   16.2450   38.5230 C   0  0  0  0  0  0  0  0  0  0  0  0
   15.8730   17.2730   37.9390 C   0  0  0  0  0  0  0  0  0  0  0  0
   14.8370   20.2450   37.6180 N   0  0  0  0  0  0  0  0  0  0  0  0
   12.7990   22.0420   38.5100 C   0  0  0  0  0  0  0  0  0  0  0  0
   11.7690   22.8990   38.9030 C   0  0  0  0  0  0  0  0  0  0  0  0
   11.2303   24.5152   35.9418 H   0  0  0  0  0  0  0  0  0  0  0  0
   13.0953   23.0048   35.2428 H   0  0  0  0  0  0  0  0  0  0  0  0
   14.5152   21.6220   34.6273 H   0  0  0  0  0  0  0  0  0  0  0  0
   17.3065   20.3526   34.1692 H   0  0  0  0  0  0  0  0  0  0  0  0
   17.0170   18.6141   34.6570 H   0  0  0  0  0  0  0  0  0  0  0  0
   16.1230   19.6920   32.3080 H   0  0  0  0  0  0  0  0  0  0  0  0
   13.5635   19.8148   31.6913 H   0  0  0  0  0  0  0  0  0  0  0  0
   11.5118   18.4092   31.7028 H   0  0  0  0  0  0  0  0  0  0  0  0
   15.3656   17.1996   34.6074 H   0  0  0  0  0  0  0  0  0  0  0  0
   18.4111   19.4194   37.1804 H   0  0  0  0  0  0  0  0  0  0  0  0
   19.7399   17.6185   38.2700 H   0  0  0  0  0  0  0  0  0  0  0  0
   16.1303   15.3340   38.8868 H   0  0  0  0  0  0  0  0  0  0  0  0
   14.7819   17.1653   37.8502 H   0  0  0  0  0  0  0  0  0  0  0  0
   13.2480   21.3542   39.2417 H   0  0  0  0  0  0  0  0  0  0  0  0
   11.4074   22.8777   39.9416 H   0  0  0  0  0  0  0  0  0  0  0  0
  1  2  2  0
  2  3  1  0
  2  4  1  0
  4  5  2  0
  5  6  1  0
  6  7  2  0
  7  8  1  0
  8  9  1  0
  9 10  2  0
 10 11  1  0
 11 12  1  0
 12 13  1  0
 13 14  2  0
 14 15  1  0
 15 16  2  0
 16 17  1  0
 16 18  1  0
 18 19  1  0
 19 20  1  0
 19 21  1  0
 19 22  1  0
 18 23  2  0
 10 24  1  0
 24 25  1  0
 25 26  2  0
 26 27  1  0
 27 28  2  0
 28 29  1  0
 28 30  1  0
 30 31  2  0
 24 32  2  0
  7 33  1  0
 33 34  2  0
 34  4  1  0
 32  8  1  0
 23 13  1  0
 31 25  1  0
  5 35  1  0
  6 36  1  0
  9 37  1  0
 11 38  1  0
 11 39  1  0
 12 40  1  0
 14 41  1  0
 15 42  1  0
 23 43  1  0
 26 44  1  0
 27 45  1  0
 30 46  1  0
 31 47  1  0
 33 48  1  0
 34 49  1  0
M  CHG  1   3  -1
M  END
>  <meeko>  (16) 
{"is_sidechain": [false], "free_energy": -8.082, "intermolecular_energy": -11.211, "internal_energy": -1.593}

> <PREPARED_BY>
siam chowdhury
Computational and Medicinal Chemistry
[Dr. Alam's Research Team] www.alamresearch.org
Arkansas State University

$$$$
22sa23_out
     RDKit          3D

 49 52  0  0  0  0  0  0  0  0999 V2000
   13.2110   22.6420   30.0530 O   0  0  0  0  0  0  0  0  0  0  0  0
   14.2890   22.1690   30.3620 C   0  0  0  0  0  0  0  0  0  0  0  0
   15.3620   22.2040   29.5490 O   0  0  0  0  0  0  0  0  0  0  0  0
   14.5360   21.5370   31.6850 C   0  0  0  0  0  0  0  0  0  0  0  0
   13.7720   20.4720   32.1830 C   0  0  0  0  0  0  0  0  0  0  0  0
   14.0110   19.9760   33.4740 C   0  0  0  0  0  0  0  0  0  0  0  0
   14.9990   20.5560   34.2810 C   0  0  0  0  0  0  0  0  0  0  0  0
   15.1860   20.1070   35.6220 N   0  0  0  0  0  0  0  0  0  0  0  0
   14.5360   20.5700   36.7350 C   0  0  0  0  0  0  0  0  0  0  0  0
   15.0030   19.8560   37.8150 C   0  0  0  0  0  0  0  0  0  0  0  0
   14.5500   20.0330   39.2210 C   0  0  0  0  0  0  0  0  0  0  0  0
   14.3670   21.4260   39.6070 N   0  0  0  0  0  0  0  0  0  0  0  0
   13.1360   22.0560   39.4940 C   0  0  0  0  0  0  0  0  0  0  0  0
   12.0560   21.7860   40.3410 C   0  0  0  0  0  0  0  0  0  0  0  0
   10.8680   22.5110   40.2460 C   0  0  0  0  0  0  0  0  0  0  0  0
   10.7600   23.5420   39.3220 C   0  0  0  0  0  0  0  0  0  0  0  0
    9.6100   24.2230   39.2660 F   0  0  0  0  0  0  0  0  0  0  0  0
   11.8200   23.8670   38.4860 C   0  0  0  0  0  0  0  0  0  0  0  0
   11.7210   25.0020   37.5140 C   0  0  0  0  0  0  0  0  0  0  0  0
   10.8020   24.8400   36.5240 F   0  0  0  0  0  0  0  0  0  0  0  0
   11.3970   26.1760   38.1280 F   0  0  0  0  0  0  0  0  0  0  0  0
   12.9050   25.2370   36.8800 F   0  0  0  0  0  0  0  0  0  0  0  0
   13.0080   23.1180   38.5850 C   0  0  0  0  0  0  0  0  0  0  0  0
   15.9740   18.9630   37.2700 C   0  0  0  0  0  0  0  0  0  0  0  0
   16.8100   17.9840   37.9850 C   0  0  0  0  0  0  0  0  0  0  0  0
   18.2130   18.1000   37.9960 C   0  0  0  0  0  0  0  0  0  0  0  0
   19.0100   17.2050   38.7100 C   0  0  0  0  0  0  0  0  0  0  0  0
   18.4110   16.1590   39.3970 C   0  0  0  0  0  0  0  0  0  0  0  0
   19.1730   15.2940   40.0750 F   0  0  0  0  0  0  0  0  0  0  0  0
   17.0310   15.9990   39.3820 C   0  0  0  0  0  0  0  0  0  0  0  0
   16.2300   16.9110   38.6790 C   0  0  0  0  0  0  0  0  0  0  0  0
   16.0470   19.1050   35.9340 N   0  0  0  0  0  0  0  0  0  0  0  0
   15.7770   21.6050   33.7680 C   0  0  0  0  0  0  0  0  0  0  0  0
   15.5430   22.0920   32.4800 C   0  0  0  0  0  0  0  0  0  0  0  0
   12.9834   20.0242   31.5604 H   0  0  0  0  0  0  0  0  0  0  0  0
   13.4207   19.1290   33.8537 H   0  0  0  0  0  0  0  0  0  0  0  0
   13.7786   21.3673   36.7610 H   0  0  0  0  0  0  0  0  0  0  0  0
   13.5906   19.5094   39.3452 H   0  0  0  0  0  0  0  0  0  0  0  0
   15.3396   19.6217   39.8671 H   0  0  0  0  0  0  0  0  0  0  0  0
   15.1350   21.9310   39.9580 H   0  0  0  0  0  0  0  0  0  0  0  0
   12.1449   20.9892   41.0941 H   0  0  0  0  0  0  0  0  0  0  0  0
   10.0190   22.2666   40.9013 H   0  0  0  0  0  0  0  0  0  0  0  0
   13.8574   23.3714   37.9336 H   0  0  0  0  0  0  0  0  0  0  0  0
   18.6907   18.9132   37.4299 H   0  0  0  0  0  0  0  0  0  0  0  0
   20.1030   17.3274   38.7282 H   0  0  0  0  0  0  0  0  0  0  0  0
   16.5676   15.1590   39.9202 H   0  0  0  0  0  0  0  0  0  0  0  0
   15.1374   16.7840   38.6716 H   0  0  0  0  0  0  0  0  0  0  0  0
   16.5751   22.0460   34.3832 H   0  0  0  0  0  0  0  0  0  0  0  0
   16.1552   22.9178   32.0886 H   0  0  0  0  0  0  0  0  0  0  0  0
  1  2  2  0
  2  3  1  0
  2  4  1  0
  4  5  2  0
  5  6  1  0
  6  7  2  0
  7  8  1  0
  8  9  1  0
  9 10  2  0
 10 11  1  0
 11 12  1  0
 12 13  1  0
 13 14  2  0
 14 15  1  0
 15 16  2  0
 16 17  1  0
 16 18  1  0
 18 19  1  0
 19 20  1  0
 19 21  1  0
 19 22  1  0
 18 23  2  0
 10 24  1  0
 24 25  1  0
 25 26  2  0
 26 27  1  0
 27 28  2  0
 28 29  1  0
 28 30  1  0
 30 31  2  0
 24 32  2  0
  7 33  1  0
 33 34  2  0
 34  4  1  0
 32  8  1  0
 23 13  1  0
 31 25  1  0
  5 35  1  0
  6 36  1  0
  9 37  1  0
 11 38  1  0
 11 39  1  0
 12 40  1  0
 14 41  1  0
 15 42  1  0
 23 43  1  0
 26 44  1  0
 27 45  1  0
 30 46  1  0
 31 47  1  0
 33 48  1  0
 34 49  1  0
M  CHG  1   3  -1
M  END
>  <meeko>  (17) 
{"is_sidechain": [false], "free_energy": -8.038, "intermolecular_energy": -11.485, "internal_energy": -1.258}

> <PREPARED_BY>
siam chowdhury
Computational and Medicinal Chemistry
[Dr. Alam's Research Team] www.alamresearch.org
Arkansas State University

$$$$
22sa23_out
     RDKit          3D

 49 52  0  0  0  0  0  0  0  0999 V2000
   16.8240   21.8170   27.2610 O   0  0  0  0  0  0  0  0  0  0  0  0
   17.5370   21.7070   28.2420 C   0  0  0  0  0  0  0  0  0  0  0  0
   18.8320   21.3450   28.1660 O   0  0  0  0  0  0  0  0  0  0  0  0
   17.0550   21.9990   29.6180 C   0  0  0  0  0  0  0  0  0  0  0  0
   17.8810   22.5090   30.6290 C   0  0  0  0  0  0  0  0  0  0  0  0
   17.3780   22.6880   31.9270 C   0  0  0  0  0  0  0  0  0  0  0  0
   16.0540   22.3380   32.2250 C   0  0  0  0  0  0  0  0  0  0  0  0
   15.5670   22.4410   33.5620 N   0  0  0  0  0  0  0  0  0  0  0  0
   15.8590   21.6010   34.6030 C   0  0  0  0  0  0  0  0  0  0  0  0
   15.1960   22.0710   35.7130 C   0  0  0  0  0  0  0  0  0  0  0  0
   15.2490   21.4580   37.0690 C   0  0  0  0  0  0  0  0  0  0  0  0
   14.0750   20.6600   37.3970 N   0  0  0  0  0  0  0  0  0  0  0  0
   13.5940   20.5750   38.6960 C   0  0  0  0  0  0  0  0  0  0  0  0
   14.2230   19.8280   39.6980 C   0  0  0  0  0  0  0  0  0  0  0  0
   13.7530   19.8480   41.0120 C   0  0  0  0  0  0  0  0  0  0  0  0
   12.6660   20.6430   41.3450 C   0  0  0  0  0  0  0  0  0  0  0  0
   12.2490   20.6460   42.6170 F   0  0  0  0  0  0  0  0  0  0  0  0
   12.0340   21.4280   40.3890 C   0  0  0  0  0  0  0  0  0  0  0  0
   10.8850   22.3170   40.7520 C   0  0  0  0  0  0  0  0  0  0  0  0
   11.0950   23.1300   41.8220 F   0  0  0  0  0  0  0  0  0  0  0  0
   10.5330   23.1440   39.7250 F   0  0  0  0  0  0  0  0  0  0  0  0
    9.7600   21.6050   41.0470 F   0  0  0  0  0  0  0  0  0  0  0  0
   12.5120   21.3890   39.0660 C   0  0  0  0  0  0  0  0  0  0  0  0
   14.4870   23.2220   35.2550 C   0  0  0  0  0  0  0  0  0  0  0  0
   13.5880   24.1000   36.0230 C   0  0  0  0  0  0  0  0  0  0  0  0
   12.2020   23.8610   36.0620 C   0  0  0  0  0  0  0  0  0  0  0  0
   11.3490   24.6600   36.8240 C   0  0  0  0  0  0  0  0  0  0  0  0
   11.8720   25.7310   37.5330 C   0  0  0  0  0  0  0  0  0  0  0  0
   11.0550   26.5040   38.2580 F   0  0  0  0  0  0  0  0  0  0  0  0
   13.2320   26.0120   37.4920 C   0  0  0  0  0  0  0  0  0  0  0  0
   14.0910   25.1970   36.7400 C   0  0  0  0  0  0  0  0  0  0  0  0
   14.7520   23.4520   33.9560 N   0  0  0  0  0  0  0  0  0  0  0  0
   15.2250   21.8520   31.2020 C   0  0  0  0  0  0  0  0  0  0  0  0
   15.7260   21.6820   29.9100 C   0  0  0  0  0  0  0  0  0  0  0  0
   18.9259   22.7696   30.4046 H   0  0  0  0  0  0  0  0  0  0  0  0
   18.0251   23.1044   32.7131 H   0  0  0  0  0  0  0  0  0  0  0  0
   16.5058   20.7123   34.5597 H   0  0  0  0  0  0  0  0  0  0  0  0
   16.1358   20.8094   37.1226 H   0  0  0  0  0  0  0  0  0  0  0  0
   15.2890   22.2842   37.7941 H   0  0  0  0  0  0  0  0  0  0  0  0
   13.6110   20.1700   36.6800 H   0  0  0  0  0  0  0  0  0  0  0  0
   15.1014   19.2156   39.4463 H   0  0  0  0  0  0  0  0  0  0  0  0
   14.2435   19.2346   41.7821 H   0  0  0  0  0  0  0  0  0  0  0  0
   12.0250   22.0127   38.3019 H   0  0  0  0  0  0  0  0  0  0  0  0
   11.7824   23.0273   35.4799 H   0  0  0  0  0  0  0  0  0  0  0  0
   10.2714   24.4424   36.8621 H   0  0  0  0  0  0  0  0  0  0  0  0
   13.6343   26.8717   38.0480 H   0  0  0  0  0  0  0  0  0  0  0  0
   15.1679   25.4194   36.7119 H   0  0  0  0  0  0  0  0  0  0  0  0
   14.1756   21.6039   31.4192 H   0  0  0  0  0  0  0  0  0  0  0  0
   15.0697   21.2957   29.1163 H   0  0  0  0  0  0  0  0  0  0  0  0
  1  2  2  0
  2  3  1  0
  2  4  1  0
  4  5  2  0
  5  6  1  0
  6  7  2  0
  7  8  1  0
  8  9  1  0
  9 10  2  0
 10 11  1  0
 11 12  1  0
 12 13  1  0
 13 14  2  0
 14 15  1  0
 15 16  2  0
 16 17  1  0
 16 18  1  0
 18 19  1  0
 19 20  1  0
 19 21  1  0
 19 22  1  0
 18 23  2  0
 10 24  1  0
 24 25  1  0
 25 26  2  0
 26 27  1  0
 27 28  2  0
 28 29  1  0
 28 30  1  0
 30 31  2  0
 24 32  2  0
  7 33  1  0
 33 34  2  0
 34  4  1  0
 32  8  1  0
 23 13  1  0
 31 25  1  0
  5 35  1  0
  6 36  1  0
  9 37  1  0
 11 38  1  0
 11 39  1  0
 12 40  1  0
 14 41  1  0
 15 42  1  0
 23 43  1  0
 26 44  1  0
 27 45  1  0
 30 46  1  0
 31 47  1  0
 33 48  1  0
 34 49  1  0
M  CHG  1   3  -1
M  END
>  <meeko>  (18) 
{"is_sidechain": [false], "free_energy": -7.841, "intermolecular_energy": -10.608, "internal_energy": -1.857}

> <PREPARED_BY>
siam chowdhury
Computational and Medicinal Chemistry
[Dr. Alam's Research Team] www.alamresearch.org
Arkansas State University

$$$$
22sa23_out
     RDKit          3D

 49 52  0  0  0  0  0  0  0  0999 V2000
   10.3220   22.9010   42.7330 O   0  0  0  0  0  0  0  0  0  0  0  0
   10.4240   21.8880   42.0660 C   0  0  0  0  0  0  0  0  0  0  0  0
    9.8100   20.7350   42.3910 O   0  0  0  0  0  0  0  0  0  0  0  0
   11.2100   21.8380   40.8050 C   0  0  0  0  0  0  0  0  0  0  0  0
   11.2930   22.9100   39.9060 C   0  0  0  0  0  0  0  0  0  0  0  0
   11.9890   22.7660   38.6970 C   0  0  0  0  0  0  0  0  0  0  0  0
   12.5880   21.5420   38.3690 C   0  0  0  0  0  0  0  0  0  0  0  0
   13.2250   21.3690   37.1050 N   0  0  0  0  0  0  0  0  0  0  0  0
   13.8280   20.2280   36.6460 C   0  0  0  0  0  0  0  0  0  0  0  0
   14.2970   20.4890   35.3780 C   0  0  0  0  0  0  0  0  0  0  0  0
   15.0090   19.5130   34.5090 C   0  0  0  0  0  0  0  0  0  0  0  0
   15.4870   18.3350   35.2200 N   0  0  0  0  0  0  0  0  0  0  0  0
   14.6210   17.3310   35.6290 C   0  0  0  0  0  0  0  0  0  0  0  0
   14.5170   16.9030   36.9570 C   0  0  0  0  0  0  0  0  0  0  0  0
   13.5650   15.9550   37.3340 C   0  0  0  0  0  0  0  0  0  0  0  0
   12.6810   15.4490   36.3910 C   0  0  0  0  0  0  0  0  0  0  0  0
   11.7750   14.5500   36.7910 F   0  0  0  0  0  0  0  0  0  0  0  0
   12.7250   15.8740   35.0690 C   0  0  0  0  0  0  0  0  0  0  0  0
   11.7500   15.3590   34.0570 C   0  0  0  0  0  0  0  0  0  0  0  0
   10.5190   15.0450   34.5440 F   0  0  0  0  0  0  0  0  0  0  0  0
   11.5300   16.2580   33.0540 F   0  0  0  0  0  0  0  0  0  0  0  0
   12.2000   14.2300   33.4400 F   0  0  0  0  0  0  0  0  0  0  0  0
   13.6990   16.8210   34.7010 C   0  0  0  0  0  0  0  0  0  0  0  0
   13.9480   21.8510   35.1330 C   0  0  0  0  0  0  0  0  0  0  0  0
   14.2350   22.6610   33.9370 C   0  0  0  0  0  0  0  0  0  0  0  0
   15.5050   22.6340   33.3320 C   0  0  0  0  0  0  0  0  0  0  0  0
   15.7720   23.3620   32.1720 C   0  0  0  0  0  0  0  0  0  0  0  0
   14.7750   24.1530   31.6200 C   0  0  0  0  0  0  0  0  0  0  0  0
   15.0310   24.8590   30.5130 F   0  0  0  0  0  0  0  0  0  0  0  0
   13.5190   24.2240   32.2100 C   0  0  0  0  0  0  0  0  0  0  0  0
   13.2470   23.4780   33.3660 C   0  0  0  0  0  0  0  0  0  0  0  0
   13.2680   22.3580   36.1770 N   0  0  0  0  0  0  0  0  0  0  0  0
   12.5230   20.4790   39.2840 C   0  0  0  0  0  0  0  0  0  0  0  0
   11.8350   20.6270   40.4900 C   0  0  0  0  0  0  0  0  0  0  0  0
   10.8104   23.8680   40.1496 H   0  0  0  0  0  0  0  0  0  0  0  0
   12.0651   23.6166   38.0037 H   0  0  0  0  0  0  0  0  0  0  0  0
   13.9207   19.2769   37.1908 H   0  0  0  0  0  0  0  0  0  0  0  0
   14.3189   19.1847   33.7178 H   0  0  0  0  0  0  0  0  0  0  0  0
   15.8946   20.0270   34.1072 H   0  0  0  0  0  0  0  0  0  0  0  0
   16.4480   18.2480   35.4140 H   0  0  0  0  0  0  0  0  0  0  0  0
   15.1959   17.3201   37.7153 H   0  0  0  0  0  0  0  0  0  0  0  0
   13.5151   15.6092   38.3770 H   0  0  0  0  0  0  0  0  0  0  0  0
   13.7390   17.1708   33.6589 H   0  0  0  0  0  0  0  0  0  0  0  0
   16.3037   22.0266   33.7827 H   0  0  0  0  0  0  0  0  0  0  0  0
   16.7640   23.3092   31.6995 H   0  0  0  0  0  0  0  0  0  0  0  0
   12.7395   24.8641   31.7712 H   0  0  0  0  0  0  0  0  0  0  0  0
   12.2508   23.5337   33.8291 H   0  0  0  0  0  0  0  0  0  0  0  0
   13.0168   19.5244   39.0495 H   0  0  0  0  0  0  0  0  0  0  0  0
   11.7842   19.7858   41.1969 H   0  0  0  0  0  0  0  0  0  0  0  0
  1  2  2  0
  2  3  1  0
  2  4  1  0
  4  5  2  0
  5  6  1  0
  6  7  2  0
  7  8  1  0
  8  9  1  0
  9 10  2  0
 10 11  1  0
 11 12  1  0
 12 13  1  0
 13 14  2  0
 14 15  1  0
 15 16  2  0
 16 17  1  0
 16 18  1  0
 18 19  1  0
 19 20  1  0
 19 21  1  0
 19 22  1  0
 18 23  2  0
 10 24  1  0
 24 25  1  0
 25 26  2  0
 26 27  1  0
 27 28  2  0
 28 29  1  0
 28 30  1  0
 30 31  2  0
 24 32  2  0
  7 33  1  0
 33 34  2  0
 34  4  1  0
 32  8  1  0
 23 13  1  0
 31 25  1  0
  5 35  1  0
  6 36  1  0
  9 37  1  0
 11 38  1  0
 11 39  1  0
 12 40  1  0
 14 41  1  0
 15 42  1  0
 23 43  1  0
 26 44  1  0
 27 45  1  0
 30 46  1  0
 31 47  1  0
 33 48  1  0
 34 49  1  0
M  CHG  1   3  -1
M  END
>  <meeko>  (19) 
{"is_sidechain": [false], "free_energy": -7.816, "intermolecular_energy": -11.606, "internal_energy": -0.823}

> <PREPARED_BY>
siam chowdhury
Computational and Medicinal Chemistry
[Dr. Alam's Research Team] www.alamresearch.org
Arkansas State University

$$$$
22sa23_out
     RDKit          3D

 49 52  0  0  0  0  0  0  0  0999 V2000
   15.4510   22.5320   29.3160 O   0  0  0  0  0  0  0  0  0  0  0  0
   14.5980   22.8140   30.1370 C   0  0  0  0  0  0  0  0  0  0  0  0
   13.5220   23.5680   29.8420 O   0  0  0  0  0  0  0  0  0  0  0  0
   14.6440   22.3220   31.5390 C   0  0  0  0  0  0  0  0  0  0  0  0
   15.7630   21.6860   32.0940 C   0  0  0  0  0  0  0  0  0  0  0  0
   15.7080   21.1770   33.4010 C   0  0  0  0  0  0  0  0  0  0  0  0
   14.5290   21.2810   34.1510 C   0  0  0  0  0  0  0  0  0  0  0  0
   14.4470   20.6920   35.4470 N   0  0  0  0  0  0  0  0  0  0  0  0
   13.5600   21.0220   36.4370 C   0  0  0  0  0  0  0  0  0  0  0  0
   13.8150   20.2010   37.5120 C   0  0  0  0  0  0  0  0  0  0  0  0
   13.0700   20.2170   38.8000 C   0  0  0  0  0  0  0  0  0  0  0  0
   13.4790   21.2870   39.7010 N   0  0  0  0  0  0  0  0  0  0  0  0
   13.4630   22.6160   39.3070 C   0  0  0  0  0  0  0  0  0  0  0  0
   14.6180   23.3970   39.1990 C   0  0  0  0  0  0  0  0  0  0  0  0
   14.5610   24.7030   38.7090 C   0  0  0  0  0  0  0  0  0  0  0  0
   13.3480   25.2310   38.2880 C   0  0  0  0  0  0  0  0  0  0  0  0
   13.3330   26.4820   37.8140 F   0  0  0  0  0  0  0  0  0  0  0  0
   12.1830   24.4780   38.3440 C   0  0  0  0  0  0  0  0  0  0  0  0
   10.8790   25.0290   37.8570 C   0  0  0  0  0  0  0  0  0  0  0  0
    9.7720   24.3630   38.2830 F   0  0  0  0  0  0  0  0  0  0  0  0
   10.6960   26.3270   38.2370 F   0  0  0  0  0  0  0  0  0  0  0  0
   10.8020   25.0350   36.4960 F   0  0  0  0  0  0  0  0  0  0  0  0
   12.2540   23.1660   38.8520 C   0  0  0  0  0  0  0  0  0  0  0  0
   14.9120   19.3880   37.0980 C   0  0  0  0  0  0  0  0  0  0  0  0
   15.6160   18.3500   37.8700 C   0  0  0  0  0  0  0  0  0  0  0  0
   16.4030   18.6870   38.9870 C   0  0  0  0  0  0  0  0  0  0  0  0
   17.0350   17.7060   39.7530 C   0  0  0  0  0  0  0  0  0  0  0  0
   16.9110   16.3740   39.3870 C   0  0  0  0  0  0  0  0  0  0  0  0
   17.5230   15.4320   40.1140 F   0  0  0  0  0  0  0  0  0  0  0  0
   16.1650   16.0100   38.2730 C   0  0  0  0  0  0  0  0  0  0  0  0
   15.5160   16.9960   37.5150 C   0  0  0  0  0  0  0  0  0  0  0  0
   15.2590   19.6760   35.8300 N   0  0  0  0  0  0  0  0  0  0  0  0
   13.4200   21.9420   33.5980 C   0  0  0  0  0  0  0  0  0  0  0  0
   13.4790   22.4540   32.3000 C   0  0  0  0  0  0  0  0  0  0  0  0
   16.6861   21.5856   31.5042 H   0  0  0  0  0  0  0  0  0  0  0  0
   16.5944   20.6943   33.8384 H   0  0  0  0  0  0  0  0  0  0  0  0
   12.7852   21.8010   36.3829 H   0  0  0  0  0  0  0  0  0  0  0  0
   11.9991   20.3387   38.5801 H   0  0  0  0  0  0  0  0  0  0  0  0
   13.2890   19.2670   39.3094 H   0  0  0  0  0  0  0  0  0  0  0  0
   13.7740   21.0590   40.6130 H   0  0  0  0  0  0  0  0  0  0  0  0
   15.5869   22.9756   39.5050 H   0  0  0  0  0  0  0  0  0  0  0  0
   15.4753   25.3124   38.6566 H   0  0  0  0  0  0  0  0  0  0  0  0
   11.3389   22.5569   38.8932 H   0  0  0  0  0  0  0  0  0  0  0  0
   16.5226   19.7453   39.2621 H   0  0  0  0  0  0  0  0  0  0  0  0
   17.6253   17.9865   40.6378 H   0  0  0  0  0  0  0  0  0  0  0  0
   16.0834   14.9512   37.9860 H   0  0  0  0  0  0  0  0  0  0  0  0
   14.9237   16.7053   36.6349 H   0  0  0  0  0  0  0  0  0  0  0  0
   12.5002   22.0570   34.1903 H   0  0  0  0  0  0  0  0  0  0  0  0
   12.6029   22.9645   31.8737 H   0  0  0  0  0  0  0  0  0  0  0  0
  1  2  2  0
  2  3  1  0
  2  4  1  0
  4  5  2  0
  5  6  1  0
  6  7  2  0
  7  8  1  0
  8  9  1  0
  9 10  2  0
 10 11  1  0
 11 12  1  0
 12 13  1  0
 13 14  2  0
 14 15  1  0
 15 16  2  0
 16 17  1  0
 16 18  1  0
 18 19  1  0
 19 20  1  0
 19 21  1  0
 19 22  1  0
 18 23  2  0
 10 24  1  0
 24 25  1  0
 25 26  2  0
 26 27  1  0
 27 28  2  0
 28 29  1  0
 28 30  1  0
 30 31  2  0
 24 32  2  0
  7 33  1  0
 33 34  2  0
 34  4  1  0
 32  8  1  0
 23 13  1  0
 31 25  1  0
  5 35  1  0
  6 36  1  0
  9 37  1  0
 11 38  1  0
 11 39  1  0
 12 40  1  0
 14 41  1  0
 15 42  1  0
 23 43  1  0
 26 44  1  0
 27 45  1  0
 30 46  1  0
 31 47  1  0
 33 48  1  0
 34 49  1  0
M  CHG  1   3  -1
M  END
>  <meeko>  (20) 
{"is_sidechain": [false], "free_energy": -7.809, "intermolecular_energy": -11.113, "internal_energy": -1.307}

> <PREPARED_BY>
siam chowdhury
Computational and Medicinal Chemistry
[Dr. Alam's Research Team] www.alamresearch.org
Arkansas State University

$$$$
