# siam chowdhury
# Computational and Medicinal Chemistry
# [Dr. Alam's Research Team] www.alamresearch.org
# Arkansas State University
# 22sa23 best docked pose (7L00 FabK)
@<TRIPOS>MOLECULE
22sa23_out
 49 52 0 0 0
SMALL
GASTEIGER

@<TRIPOS>ATOM
      1 O          16.2220   13.5160   35.5640 O.co2   1  UNL1       -0.5446
      2 C          15.4270   14.3870   35.2590 C.2     1  UNL1        0.0717
      3 O          14.4780   14.2130   34.3200 O.co2   1  UNL1       -0.5446
      4 C          15.4050   15.7170   35.9230 C.ar    1  UNL1       -0.0026
      5 C          16.2290   16.0490   37.0070 C.ar    1  UNL1       -0.0509
      6 C          16.0990   17.2980   37.6350 C.ar    1  UNL1       -0.0357
      7 C          15.1310   18.2110   37.1970 C.ar    1  UNL1        0.0654
      8 N          14.9440   19.4450   37.8860 N.ar    1  UNL1       -0.2390
      9 C          15.7670   20.5390   37.8370 C.ar    1  UNL1        0.0365
     10 C          15.2080   21.5130   38.6330 C.ar    1  UNL1        0.0153
     11 C          15.7760   22.8720   38.8520 C.3     1  UNL1        0.0379
     12 N          14.7690   23.8930   39.1120 N.pl3   1  UNL1       -0.3396
     13 C          14.0910   24.5250   38.0810 C.ar    1  UNL1        0.0281
     14 C          13.1910   25.5760   38.2860 C.ar    1  UNL1       -0.0381
     15 C          12.6040   26.2410   37.2100 C.ar    1  UNL1       -0.0241
     16 C          12.9380   25.8840   35.9110 C.ar    1  UNL1        0.1351
     17 F          12.3640   26.5510   34.9030 F       1  UNL1       -0.2049
     18 C          13.8550   24.8710   35.6610 C.ar    1  UNL1        0.0916
     19 C          14.2480   24.5080   34.2630 C.3     1  UNL1        0.4201
     20 F          13.2310   24.0770   33.4680 F       1  UNL1       -0.1658
     21 F          14.8130   25.5580   33.6000 F       1  UNL1       -0.1658
     22 F          15.1820   23.5150   34.2350 F       1  UNL1       -0.1658
     23 C          14.4300   24.2010   36.7580 C.ar    1  UNL1       -0.0264
     24 C          14.0230   20.9180   39.1610 C.ar    1  UNL1        0.0978
     25 C          13.0530   21.5070   40.1000 C.ar    1  UNL1        0.0026
     26 C          11.8830   22.1350   39.6350 C.ar    1  UNL1       -0.0498
     27 C          10.9360   22.6530   40.5180 C.ar    1  UNL1       -0.0258
     28 C          11.1670   22.5760   41.8840 C.ar    1  UNL1        0.1234
     29 F          10.2650   23.0810   42.7330 F       1  UNL1       -0.2055
     30 C          12.3250   21.9890   42.3760 C.ar    1  UNL1       -0.0258
     31 C          13.2680   21.4520   41.4860 C.ar    1  UNL1       -0.0498
     32 N          13.8610   19.6760   38.6700 N.ar    1  UNL1       -0.1661
     33 C          14.3260   17.8820   36.0950 C.ar    1  UNL1       -0.0357
     34 C          14.4620   16.6420   35.4670 C.ar    1  UNL1       -0.0509
     35 H          16.9793   15.3294   37.3666 H       1  UNL1        0.0625
     36 H          16.7598   17.5607   38.4742 H       1  UNL1        0.0639
     37 H          16.7034   20.6236   37.2660 H       1  UNL1        0.0834
     38 H          16.4574   22.8287   39.7145 H       1  UNL1        0.0512
     39 H          16.2917   23.1583   37.9235 H       1  UNL1        0.0512
     40 H          14.5650   24.1390   40.0440 H       1  UNL1        0.1464
     41 H          12.9423   25.8829   39.3126 H       1  UNL1        0.0637
     42 H          11.8776   27.0471   37.3904 H       1  UNL1        0.0647
     43 H          15.1640   23.4028   36.5733 H       1  UNL1        0.0642
     44 H          11.7115   22.2192   38.5517 H       1  UNL1        0.0625
     45 H          10.0154   23.1179   40.1355 H       1  UNL1        0.0646
     46 H          12.5029   21.9449   43.4606 H       1  UNL1        0.0646
     47 H          14.1832   20.9841   41.8779 H       1  UNL1        0.0625
     48 H          13.5842   18.6047   35.7242 H       1  UNL1        0.0639
     49 H          13.8225   16.3918   34.6077 H       1  UNL1        0.0625
@<TRIPOS>UNITY_ATOM_ATTR
3 1
charge -1
@<TRIPOS>BOND
     1     1     2   ar
     2     2     3   ar
     3     2     4    1
     4     4     5   ar
     5     5     6   ar
     6     6     7   ar
     7     7     8    1
     8     8     9   ar
     9     9    10   ar
    10    10    11    1
    11    11    12    1
    12    12    13    1
    13    13    14   ar
    14    14    15   ar
    15    15    16   ar
    16    16    17    1
    17    16    18   ar
    18    18    19    1
    19    19    20    1
    20    19    21    1
    21    19    22    1
    22    18    23   ar
    23    10    24   ar
    24    24    25    1
    25    25    26   ar
    26    26    27   ar
    27    27    28   ar
    28    28    29    1
    29    28    30   ar
    30    30    31   ar
    31    24    32   ar
    32     7    33   ar
    33    33    34   ar
    34    34     4   ar
    35    32     8   ar
    36    23    13   ar
    37    31    25   ar
    38     5    35    1
    39     6    36    1
    40     9    37    1
    41    11    38    1
    42    11    39    1
    43    12    40    1
    44    14    41    1
    45    15    42    1
    46    23    43    1
    47    26    44    1
    48    27    45    1
    49    30    46    1
    50    31    47    1
    51    33    48    1
    52    34    49    1
