
 OpenBabel09252602183D

 46 49  0  0  0  0  0  0  0  0999 V2000
    1.3735   -0.2620    0.0415 C   0  0  0  0  0  0  0  0  0  0  0  0
   -0.5187    0.8777   -0.9717 C   0  0  0  0  0  0  0  0  0  0  0  0
    0.8608    0.6496   -0.8886 C   0  0  0  0  0  0  0  0  0  0  0  0
   -1.4005    0.2041   -0.1125 C   0  0  0  0  0  0  0  0  0  0  0  0
    0.4991   -0.9263    0.9092 C   0  0  0  0  0  0  0  0  0  0  0  0
   -0.8816   -0.6985    0.8286 C   0  0  0  0  0  0  0  0  0  0  0  0
    2.8454   -0.4482    0.1074 C   0  0  0  0  0  0  0  0  0  0  0  0
    3.6378    0.4305   -0.1972 O   0  0  0  0  0  0  0  0  0  0  0  0
    3.2339   -1.6792    0.5016 O   0  5  0  0  0  0  0  0  0  0  0  0
   -2.8035    0.4494   -0.2042 N   0  0  0  0  0  0  0  0  0  0  0  0
   -3.7942   -0.0519    0.6032 C   0  0  0  0  0  0  0  0  0  0  0  0
   -4.9994    0.4269    0.1312 C   0  0  0  0  0  0  0  0  0  0  0  0
   -4.6511    1.2024   -1.0190 C   0  0  0  0  0  0  0  0  0  0  0  0
   -3.3167    1.2473   -1.1700 N   0  0  0  0  0  0  0  0  0  0  0  0
   -5.5344    1.8895   -1.9758 C   0  0  0  0  0  0  0  0  0  0  0  0
   -6.3514    0.1519    0.7160 C   0  0  0  0  0  0  0  0  0  0  0  0
   -6.9849   -1.0634    0.1982 N   0  0  0  0  0  0  0  0  0  0  0  0
   -8.3726   -1.0877    0.0221 C   0  0  0  0  0  0  0  0  0  0  0  0
   -7.6426    2.0160   -3.2035 C   0  0  0  0  0  0  0  0  0  0  0  0
   -6.7948    1.3663   -2.3047 C   0  0  0  0  0  0  0  0  0  0  0  0
   -7.2173    3.1857   -3.8105 C   0  0  0  0  0  0  0  0  0  0  0  0
   -5.1237    3.0707   -2.6136 C   0  0  0  0  0  0  0  0  0  0  0  0
   -5.9635    3.7154   -3.5304 C   0  0  0  0  0  0  0  0  0  0  0  0
   -8.0216    3.8026   -4.6860 F   0  0  0  0  0  0  0  0  0  0  0  0
  -10.6393   -0.5364    0.6727 C   0  0  0  0  0  0  0  0  0  0  0  0
   -9.2641   -0.4390    0.8808 C   0  0  0  0  0  0  0  0  0  0  0  0
  -11.1606   -1.2849   -0.3740 C   0  0  0  0  0  0  0  0  0  0  0  0
   -8.9103   -1.8719   -1.0131 C   0  0  0  0  0  0  0  0  0  0  0  0
  -10.2906   -1.9593   -1.2230 C   0  0  0  0  0  0  0  0  0  0  0  0
  -11.4756    0.0998    1.5040 F   0  0  0  0  0  0  0  0  0  0  0  0
   -0.8882    1.5439   -1.6679 H   0  0  0  0  0  0  0  0  0  0  0  0
    1.5032    1.1570   -1.5171 H   0  0  0  0  0  0  0  0  0  0  0  0
    0.8719   -1.5856    1.6102 H   0  0  0  0  0  0  0  0  0  0  0  0
   -1.5212   -1.1982    1.4659 H   0  0  0  0  0  0  0  0  0  0  0  0
   -3.6617   -0.6741    1.4159 H   0  0  0  0  0  0  0  0  0  0  0  0
   -6.9886    0.9834    0.4978 H   0  0  0  0  0  0  0  0  0  0  0  0
   -6.2122    0.0067    1.7669 H   0  0  0  0  0  0  0  0  0  0  0  0
   -6.4406   -1.8533   -0.0232 H   0  0  0  0  0  0  0  0  0  0  0  0
   -8.5759    1.6288   -3.4133 H   0  0  0  0  0  0  0  0  0  0  0  0
   -7.1016    0.4811   -1.8720 H   0  0  0  0  0  0  0  0  0  0  0  0
   -4.1942    3.4676   -2.4049 H   0  0  0  0  0  0  0  0  0  0  0  0
   -5.6520    4.5817   -3.9968 H   0  0  0  0  0  0  0  0  0  0  0  0
   -8.9027    0.1149    1.6729 H   0  0  0  0  0  0  0  0  0  0  0  0
  -12.1807   -1.3400   -0.5199 H   0  0  0  0  0  0  0  0  0  0  0  0
   -8.2720   -2.3953   -1.6326 H   0  0  0  0  0  0  0  0  0  0  0  0
  -10.6614   -2.5219   -2.0046 H   0  0  0  0  0  0  0  0  0  0  0  0
  1  5  1  0  0  0  0
  1  7  1  0  0  0  0
  2  3  1  0  0  0  0
  2 31  1  0  0  0  0
  3  1  2  0  0  0  0
  3 32  1  0  0  0  0
  4  2  2  0  0  0  0
  4 10  1  0  0  0  0
  5  6  2  0  0  0  0
  5 33  1  0  0  0  0
  6  4  1  0  0  0  0
  6 34  1  0  0  0  0
  7  8  2  0  0  0  0
  7  9  1  0  0  0  0
 11 12  2  0  0  0  0
 11 10  1  0  0  0  0
 11 35  1  0  0  0  0
 12 13  1  0  0  0  0
 12 16  1  0  0  0  0
 13 14  2  0  0  0  0
 13 15  1  0  0  0  0
 14 10  1  0  0  0  0
 15 22  1  0  0  0  0
 16 17  1  0  0  0  0
 16 36  1  0  0  0  0
 16 37  1  0  0  0  0
 17 18  1  0  0  0  0
 17 38  1  0  0  0  0
 18 28  1  0  0  0  0
 19 20  1  0  0  0  0
 19 39  1  0  0  0  0
 20 15  2  0  0  0  0
 20 40  1  0  0  0  0
 21 19  2  0  0  0  0
 21 24  1  0  0  0  0
 22 23  2  0  0  0  0
 22 41  1  0  0  0  0
 23 21  1  0  0  0  0
 23 42  1  0  0  0  0
 25 26  1  0  0  0  0
 25 30  1  0  0  0  0
 26 18  2  0  0  0  0
 26 43  1  0  0  0  0
 27 25  2  0  0  0  0
 27 44  1  0  0  0  0
 28 29  2  0  0  0  0
 28 45  1  0  0  0  0
 29 27  1  0  0  0  0
 29 46  1  0  0  0  0
M  CHG  1   9  -1
M  END
>  <Energy>
69.4163

> <PREPARED_BY>
siam chowdhury
Computational and Medicinal Chemistry
[Dr. Alam's Research Team] www.alamresearch.org
Arkansas State University

$$$$
