5sa23_out
     RDKit          3D

 46 49  0  0  0  0  0  0  0  0999 V2000
    5.7960   14.0190   31.1090 O   0  0  0  0  0  0  0  0  0  0  0  0
    6.1800   14.2460   32.2460 C   0  0  0  0  0  0  0  0  0  0  0  0
    5.3530   14.2380   33.3130 O   0  0  0  0  0  0  0  0  0  0  0  0
    7.5900   14.5870   32.5670 C   0  0  0  0  0  0  0  0  0  0  0  0
    7.9820   14.5880   33.9110 C   0  0  0  0  0  0  0  0  0  0  0  0
    9.2950   14.9260   34.2660 C   0  0  0  0  0  0  0  0  0  0  0  0
   10.2260   15.2800   33.2780 C   0  0  0  0  0  0  0  0  0  0  0  0
   11.5590   15.6270   33.6520 N   0  0  0  0  0  0  0  0  0  0  0  0
   12.4570   14.8610   34.3520 C   0  0  0  0  0  0  0  0  0  0  0  0
   13.6070   15.6070   34.5090 C   0  0  0  0  0  0  0  0  0  0  0  0
   14.8620   15.1640   35.1980 C   0  0  0  0  0  0  0  0  0  0  0  0
   14.6900   14.8930   36.6280 N   0  0  0  0  0  0  0  0  0  0  0  0
   14.9550   15.9090   37.5530 C   0  0  0  0  0  0  0  0  0  0  0  0
   16.1660   15.8770   38.2640 C   0  0  0  0  0  0  0  0  0  0  0  0
   16.5000   16.8780   39.1830 C   0  0  0  0  0  0  0  0  0  0  0  0
   15.6370   17.9490   39.3800 C   0  0  0  0  0  0  0  0  0  0  0  0
   14.4540   18.0060   38.6540 C   0  0  0  0  0  0  0  0  0  0  0  0
   13.6290   19.0470   38.8280 F   0  0  0  0  0  0  0  0  0  0  0  0
   14.1120   17.0070   37.7440 C   0  0  0  0  0  0  0  0  0  0  0  0
   13.3080   16.8620   33.8940 C   0  0  0  0  0  0  0  0  0  0  0  0
   14.1310   18.0810   33.8260 C   0  0  0  0  0  0  0  0  0  0  0  0
   14.8300   18.4210   32.6570 C   0  0  0  0  0  0  0  0  0  0  0  0
   15.6040   19.5800   32.5800 C   0  0  0  0  0  0  0  0  0  0  0  0
   15.7130   20.3970   33.6940 C   0  0  0  0  0  0  0  0  0  0  0  0
   16.4680   21.5010   33.6280 F   0  0  0  0  0  0  0  0  0  0  0  0
   15.0580   20.0740   34.8760 C   0  0  0  0  0  0  0  0  0  0  0  0
   14.2670   18.9220   34.9430 C   0  0  0  0  0  0  0  0  0  0  0  0
   12.0870   16.8330   33.3350 N   0  0  0  0  0  0  0  0  0  0  0  0
    9.8250   15.2910   31.9320 C   0  0  0  0  0  0  0  0  0  0  0  0
    8.5110   14.9520   31.5800 C   0  0  0  0  0  0  0  0  0  0  0  0
    7.2553   14.3220   34.6928 H   0  0  0  0  0  0  0  0  0  0  0  0
    9.5968   14.9137   35.3237 H   0  0  0  0  0  0  0  0  0  0  0  0
   12.2903   13.8382   34.7209 H   0  0  0  0  0  0  0  0  0  0  0  0
   15.2180   14.2439   34.7114 H   0  0  0  0  0  0  0  0  0  0  0  0
   15.5817   15.9916   35.1140 H   0  0  0  0  0  0  0  0  0  0  0  0
   14.3910   14.0060   36.9340 H   0  0  0  0  0  0  0  0  0  0  0  0
   16.8673   15.0467   38.0946 H   0  0  0  0  0  0  0  0  0  0  0  0
   17.4422   16.8172   39.7473 H   0  0  0  0  0  0  0  0  0  0  0  0
   15.8872   18.7411   40.1011 H   0  0  0  0  0  0  0  0  0  0  0  0
   13.1744   17.0833   37.1738 H   0  0  0  0  0  0  0  0  0  0  0  0
   14.7663   17.7585   31.7812 H   0  0  0  0  0  0  0  0  0  0  0  0
   16.1217   19.8419   31.6454 H   0  0  0  0  0  0  0  0  0  0  0  0
   15.1612   20.7232   35.7580 H   0  0  0  0  0  0  0  0  0  0  0  0
   13.7465   18.6723   35.8794 H   0  0  0  0  0  0  0  0  0  0  0  0
   10.5465   15.5674   31.1490 H   0  0  0  0  0  0  0  0  0  0  0  0
    8.2035   14.9732   30.5241 H   0  0  0  0  0  0  0  0  0  0  0  0
  1  2  2  0
  2  3  1  0
  2  4  1  0
  4  5  2  0
  5  6  1  0
  6  7  2  0
  7  8  1  0
  8  9  1  0
  9 10  2  0
 10 11  1  0
 11 12  1  0
 12 13  1  0
 13 14  2  0
 14 15  1  0
 15 16  2  0
 16 17  1  0
 17 18  1  0
 17 19  2  0
 10 20  1  0
 20 21  1  0
 21 22  2  0
 22 23  1  0
 23 24  2  0
 24 25  1  0
 24 26  1  0
 26 27  2  0
 20 28  2  0
  7 29  1  0
 29 30  2  0
 30  4  1  0
 28  8  1  0
 19 13  1  0
 27 21  1  0
  5 31  1  0
  6 32  1  0
  9 33  1  0
 11 34  1  0
 11 35  1  0
 12 36  1  0
 14 37  1  0
 15 38  1  0
 16 39  1  0
 19 40  1  0
 22 41  1  0
 23 42  1  0
 26 43  1  0
 27 44  1  0
 29 45  1  0
 30 46  1  0
M  CHG  1   3  -1
M  END
>  <meeko>  (1) 
{"is_sidechain": [false], "free_energy": -7.988, "intermolecular_energy": -10.791, "internal_energy": -1.323}

> <PREPARED_BY>
siam chowdhury
Computational and Medicinal Chemistry
[Dr. Alam's Research Team] www.alamresearch.org
Arkansas State University

$$$$
5sa23_out
     RDKit          3D

 46 49  0  0  0  0  0  0  0  0999 V2000
    5.3470   13.8330   32.1640 O   0  0  0  0  0  0  0  0  0  0  0  0
    6.2940   14.1350   31.4530 C   0  0  0  0  0  0  0  0  0  0  0  0
    6.2810   13.9740   30.1120 O   0  0  0  0  0  0  0  0  0  0  0  0
    7.5650   14.6800   31.9930 C   0  0  0  0  0  0  0  0  0  0  0  0
    8.4450   15.3110   31.1050 C   0  0  0  0  0  0  0  0  0  0  0  0
    9.6680   15.8200   31.5620 C   0  0  0  0  0  0  0  0  0  0  0  0
   10.0290   15.6900   32.9120 C   0  0  0  0  0  0  0  0  0  0  0  0
   11.2800   16.2080   33.3640 N   0  0  0  0  0  0  0  0  0  0  0  0
   12.0920   17.1100   32.7230 C   0  0  0  0  0  0  0  0  0  0  0  0
   13.2080   17.3000   33.5130 C   0  0  0  0  0  0  0  0  0  0  0  0
   14.3560   18.2160   33.2150 C   0  0  0  0  0  0  0  0  0  0  0  0
   14.2550   19.5240   33.8690 N   0  0  0  0  0  0  0  0  0  0  0  0
   14.7250   19.6710   35.1790 C   0  0  0  0  0  0  0  0  0  0  0  0
   15.9650   19.1060   35.5210 C   0  0  0  0  0  0  0  0  0  0  0  0
   16.5000   19.2420   36.8070 C   0  0  0  0  0  0  0  0  0  0  0  0
   15.8130   19.9770   37.7660 C   0  0  0  0  0  0  0  0  0  0  0  0
   14.6030   20.5680   37.4250 C   0  0  0  0  0  0  0  0  0  0  0  0
   13.9470   21.2930   38.3420 F   0  0  0  0  0  0  0  0  0  0  0  0
   14.0610   20.4280   36.1480 C   0  0  0  0  0  0  0  0  0  0  0  0
   13.0120   16.4270   34.6270 C   0  0  0  0  0  0  0  0  0  0  0  0
   13.9160   16.1450   35.7550 C   0  0  0  0  0  0  0  0  0  0  0  0
   13.6750   16.6820   37.0300 C   0  0  0  0  0  0  0  0  0  0  0  0
   14.5210   16.4120   38.1070 C   0  0  0  0  0  0  0  0  0  0  0  0
   15.6430   15.6250   37.9060 C   0  0  0  0  0  0  0  0  0  0  0  0
   16.4650   15.3780   38.9340 F   0  0  0  0  0  0  0  0  0  0  0  0
   15.9260   15.1020   36.6500 C   0  0  0  0  0  0  0  0  0  0  0  0
   15.0650   15.3590   35.5770 C   0  0  0  0  0  0  0  0  0  0  0  0
   11.8160   15.8190   34.5450 N   0  0  0  0  0  0  0  0  0  0  0  0
    9.1500   15.0430   33.7960 C   0  0  0  0  0  0  0  0  0  0  0  0
    7.9270   14.5360   33.3360 C   0  0  0  0  0  0  0  0  0  0  0  0
    8.1748   15.4076   30.0431 H   0  0  0  0  0  0  0  0  0  0  0  0
   10.3482   16.3237   30.8594 H   0  0  0  0  0  0  0  0  0  0  0  0
   11.8902   17.5935   31.7558 H   0  0  0  0  0  0  0  0  0  0  0  0
   15.2836   17.7304   33.5523 H   0  0  0  0  0  0  0  0  0  0  0  0
   14.3465   18.3988   32.1303 H   0  0  0  0  0  0  0  0  0  0  0  0
   13.8620   20.2900   33.3930 H   0  0  0  0  0  0  0  0  0  0  0  0
   16.5279   18.5442   34.7610 H   0  0  0  0  0  0  0  0  0  0  0  0
   17.4608   18.7689   37.0580 H   0  0  0  0  0  0  0  0  0  0  0  0
   16.2218   20.0891   38.7810 H   0  0  0  0  0  0  0  0  0  0  0  0
   13.1062   20.9157   35.9021 H   0  0  0  0  0  0  0  0  0  0  0  0
   12.7996   17.3302   37.1835 H   0  0  0  0  0  0  0  0  0  0  0  0
   14.2991   16.8197   39.1043 H   0  0  0  0  0  0  0  0  0  0  0  0
   16.8254   14.4869   36.4994 H   0  0  0  0  0  0  0  0  0  0  0  0
   15.2909   14.9411   34.5849 H   0  0  0  0  0  0  0  0  0  0  0  0
    9.4231   14.9335   34.8559 H   0  0  0  0  0  0  0  0  0  0  0  0
    7.2493   14.0228   34.0341 H   0  0  0  0  0  0  0  0  0  0  0  0
  1  2  2  0
  2  3  1  0
  2  4  1  0
  4  5  2  0
  5  6  1  0
  6  7  2  0
  7  8  1  0
  8  9  1  0
  9 10  2  0
 10 11  1  0
 11 12  1  0
 12 13  1  0
 13 14  2  0
 14 15  1  0
 15 16  2  0
 16 17  1  0
 17 18  1  0
 17 19  2  0
 10 20  1  0
 20 21  1  0
 21 22  2  0
 22 23  1  0
 23 24  2  0
 24 25  1  0
 24 26  1  0
 26 27  2  0
 20 28  2  0
  7 29  1  0
 29 30  2  0
 30  4  1  0
 28  8  1  0
 19 13  1  0
 27 21  1  0
  5 31  1  0
  6 32  1  0
  9 33  1  0
 11 34  1  0
 11 35  1  0
 12 36  1  0
 14 37  1  0
 15 38  1  0
 16 39  1  0
 19 40  1  0
 22 41  1  0
 23 42  1  0
 26 43  1  0
 27 44  1  0
 29 45  1  0
 30 46  1  0
M  CHG  1   3  -1
M  END
>  <meeko>  (2) 
{"is_sidechain": [false], "free_energy": -7.163, "intermolecular_energy": -8.812, "internal_energy": -2.187}

> <PREPARED_BY>
siam chowdhury
Computational and Medicinal Chemistry
[Dr. Alam's Research Team] www.alamresearch.org
Arkansas State University

$$$$
5sa23_out
     RDKit          3D

 46 49  0  0  0  0  0  0  0  0999 V2000
   15.3460   17.9860   33.3640 O   0  0  0  0  0  0  0  0  0  0  0  0
   14.6210   18.9450   33.5810 C   0  0  0  0  0  0  0  0  0  0  0  0
   14.7790   19.7530   34.6510 O   0  0  0  0  0  0  0  0  0  0  0  0
   13.4730   19.3010   32.7090 C   0  0  0  0  0  0  0  0  0  0  0  0
   12.6030   18.2790   32.3090 C   0  0  0  0  0  0  0  0  0  0  0  0
   11.5190   18.5600   31.4670 C   0  0  0  0  0  0  0  0  0  0  0  0
   11.3030   19.8680   31.0050 C   0  0  0  0  0  0  0  0  0  0  0  0
   10.1980   20.1410   30.1430 N   0  0  0  0  0  0  0  0  0  0  0  0
   10.1060   21.1200   29.1870 C   0  0  0  0  0  0  0  0  0  0  0  0
    8.8520   21.0310   28.6180 C   0  0  0  0  0  0  0  0  0  0  0  0
    8.3170   21.8940   27.5160 C   0  0  0  0  0  0  0  0  0  0  0  0
    7.5140   23.0260   27.9850 N   0  0  0  0  0  0  0  0  0  0  0  0
    6.1540   22.8340   28.2540 C   0  0  0  0  0  0  0  0  0  0  0  0
    5.3360   22.2860   27.2510 C   0  0  0  0  0  0  0  0  0  0  0  0
    3.9740   22.0460   27.4680 C   0  0  0  0  0  0  0  0  0  0  0  0
    3.4160   22.3220   28.7110 C   0  0  0  0  0  0  0  0  0  0  0  0
    4.2250   22.8310   29.7180 C   0  0  0  0  0  0  0  0  0  0  0  0
    3.6930   23.0800   30.9230 F   0  0  0  0  0  0  0  0  0  0  0  0
    5.5800   23.0800   29.5040 C   0  0  0  0  0  0  0  0  0  0  0  0
    8.2110   19.9690   29.3290 C   0  0  0  0  0  0  0  0  0  0  0  0
    6.8280   19.4760   29.2100 C   0  0  0  0  0  0  0  0  0  0  0  0
    6.3460   18.9510   28.0000 C   0  0  0  0  0  0  0  0  0  0  0  0
    5.0400   18.4720   27.8820 C   0  0  0  0  0  0  0  0  0  0  0  0
    4.1900   18.5470   28.9730 C   0  0  0  0  0  0  0  0  0  0  0  0
    2.9310   18.1030   28.8570 F   0  0  0  0  0  0  0  0  0  0  0  0
    4.6260   19.0880   30.1760 C   0  0  0  0  0  0  0  0  0  0  0  0
    5.9420   19.5490   30.2970 C   0  0  0  0  0  0  0  0  0  0  0  0
    9.0600   19.4090   30.2060 N   0  0  0  0  0  0  0  0  0  0  0  0
   12.1860   20.8870   31.3960 C   0  0  0  0  0  0  0  0  0  0  0  0
   13.2690   20.6030   32.2400 C   0  0  0  0  0  0  0  0  0  0  0  0
   12.7717   17.2496   32.6580 H   0  0  0  0  0  0  0  0  0  0  0  0
   10.8347   17.7528   31.1668 H   0  0  0  0  0  0  0  0  0  0  0  0
   10.8898   21.8448   28.9218 H   0  0  0  0  0  0  0  0  0  0  0  0
    9.1677   22.2877   26.9404 H   0  0  0  0  0  0  0  0  0  0  0  0
    7.6529   21.2613   26.9089 H   0  0  0  0  0  0  0  0  0  0  0  0
    7.9260   23.9110   28.1090 H   0  0  0  0  0  0  0  0  0  0  0  0
    5.7760   22.0401   26.2733 H   0  0  0  0  0  0  0  0  0  0  0  0
    3.3484   21.6410   26.6589 H   0  0  0  0  0  0  0  0  0  0  0  0
    2.3469   22.1394   28.8944 H   0  0  0  0  0  0  0  0  0  0  0  0
    6.2004   23.4721   30.3234 H   0  0  0  0  0  0  0  0  0  0  0  0
    7.0124   18.9164   27.1255 H   0  0  0  0  0  0  0  0  0  0  0  0
    4.6899   18.0398   26.9330 H   0  0  0  0  0  0  0  0  0  0  0  0
    3.9382   19.1539   31.0319 H   0  0  0  0  0  0  0  0  0  0  0  0
    6.2854   19.9724   31.2524 H   0  0  0  0  0  0  0  0  0  0  0  0
   12.0272   21.9149   31.0379 H   0  0  0  0  0  0  0  0  0  0  0  0
   13.9603   21.4064   32.5342 H   0  0  0  0  0  0  0  0  0  0  0  0
  1  2  2  0
  2  3  1  0
  2  4  1  0
  4  5  2  0
  5  6  1  0
  6  7  2  0
  7  8  1  0
  8  9  1  0
  9 10  2  0
 10 11  1  0
 11 12  1  0
 12 13  1  0
 13 14  2  0
 14 15  1  0
 15 16  2  0
 16 17  1  0
 17 18  1  0
 17 19  2  0
 10 20  1  0
 20 21  1  0
 21 22  2  0
 22 23  1  0
 23 24  2  0
 24 25  1  0
 24 26  1  0
 26 27  2  0
 20 28  2  0
  7 29  1  0
 29 30  2  0
 30  4  1  0
 28  8  1  0
 19 13  1  0
 27 21  1  0
  5 31  1  0
  6 32  1  0
  9 33  1  0
 11 34  1  0
 11 35  1  0
 12 36  1  0
 14 37  1  0
 15 38  1  0
 16 39  1  0
 19 40  1  0
 22 41  1  0
 23 42  1  0
 26 43  1  0
 27 44  1  0
 29 45  1  0
 30 46  1  0
M  CHG  1   3  -1
M  END
>  <meeko>  (3) 
{"is_sidechain": [false], "free_energy": -6.96, "intermolecular_energy": -8.326, "internal_energy": -2.398}

> <PREPARED_BY>
siam chowdhury
Computational and Medicinal Chemistry
[Dr. Alam's Research Team] www.alamresearch.org
Arkansas State University

$$$$
5sa23_out
     RDKit          3D

 46 49  0  0  0  0  0  0  0  0999 V2000
   15.0990   17.9610   33.3540 O   0  0  0  0  0  0  0  0  0  0  0  0
   14.6710   19.0640   33.0510 C   0  0  0  0  0  0  0  0  0  0  0  0
   15.3010   20.2100   33.3890 O   0  0  0  0  0  0  0  0  0  0  0  0
   13.3990   19.2600   32.3100 C   0  0  0  0  0  0  0  0  0  0  0  0
   13.1100   20.5370   31.8150 C   0  0  0  0  0  0  0  0  0  0  0  0
   11.9120   20.7770   31.1300 C   0  0  0  0  0  0  0  0  0  0  0  0
   10.9830   19.7420   30.9440 C   0  0  0  0  0  0  0  0  0  0  0  0
    9.7630   20.0000   30.2490 N   0  0  0  0  0  0  0  0  0  0  0  0
    8.5080   19.5470   30.5670 C   0  0  0  0  0  0  0  0  0  0  0  0
    7.6380   20.0200   29.6060 C   0  0  0  0  0  0  0  0  0  0  0  0
    6.1590   19.7880   29.5590 C   0  0  0  0  0  0  0  0  0  0  0  0
    5.7490   18.7690   28.5890 N   0  0  0  0  0  0  0  0  0  0  0  0
    5.3460   19.1660   27.3090 C   0  0  0  0  0  0  0  0  0  0  0  0
    4.6470   20.3760   27.1650 C   0  0  0  0  0  0  0  0  0  0  0  0
    4.2410   20.8400   25.9090 C   0  0  0  0  0  0  0  0  0  0  0  0
    4.5600   20.1120   24.7690 C   0  0  0  0  0  0  0  0  0  0  0  0
    5.2810   18.9320   24.9000 C   0  0  0  0  0  0  0  0  0  0  0  0
    5.6060   18.2370   23.8010 F   0  0  0  0  0  0  0  0  0  0  0  0
    5.6810   18.4610   26.1500 C   0  0  0  0  0  0  0  0  0  0  0  0
    8.4700   20.7410   28.6930 C   0  0  0  0  0  0  0  0  0  0  0  0
    8.1060   21.3980   27.4270 C   0  0  0  0  0  0  0  0  0  0  0  0
    8.4510   20.8310   26.1890 C   0  0  0  0  0  0  0  0  0  0  0  0
    8.1010   21.4420   24.9830 C   0  0  0  0  0  0  0  0  0  0  0  0
    7.4270   22.6520   25.0080 C   0  0  0  0  0  0  0  0  0  0  0  0
    7.1040   23.2480   23.8530 F   0  0  0  0  0  0  0  0  0  0  0  0
    7.0960   23.2550   26.2160 C   0  0  0  0  0  0  0  0  0  0  0  0
    7.4310   22.6300   27.4220 C   0  0  0  0  0  0  0  0  0  0  0  0
    9.7400   20.7630   29.1310 N   0  0  0  0  0  0  0  0  0  0  0  0
   11.2700   18.4660   31.4550 C   0  0  0  0  0  0  0  0  0  0  0  0
   12.4700   18.2280   32.1390 C   0  0  0  0  0  0  0  0  0  0  0  0
   13.8279   21.3569   31.9648 H   0  0  0  0  0  0  0  0  0  0  0  0
   11.6985   21.7816   30.7360 H   0  0  0  0  0  0  0  0  0  0  0  0
    8.2431   18.9203   31.4313 H   0  0  0  0  0  0  0  0  0  0  0  0
    5.8264   19.4692   30.5579 H   0  0  0  0  0  0  0  0  0  0  0  0
    5.6969   20.7347   29.2426 H   0  0  0  0  0  0  0  0  0  0  0  0
    5.7560   17.8160   28.8350 H   0  0  0  0  0  0  0  0  0  0  0  0
    4.4136   20.9720   28.0596 H   0  0  0  0  0  0  0  0  0  0  0  0
    3.6716   21.7773   25.8242 H   0  0  0  0  0  0  0  0  0  0  0  0
    4.2456   20.4656   23.7759 H   0  0  0  0  0  0  0  0  0  0  0  0
    6.2628   17.5304   26.2240 H   0  0  0  0  0  0  0  0  0  0  0  0
    9.0098   19.8837   26.1690 H   0  0  0  0  0  0  0  0  0  0  0  0
    8.3576   20.9679   24.0242 H   0  0  0  0  0  0  0  0  0  0  0  0
    6.5716   24.2219   26.2236 H   0  0  0  0  0  0  0  0  0  0  0  0
    7.1632   23.1080   28.3758 H   0  0  0  0  0  0  0  0  0  0  0  0
   10.5481   17.6475   31.3175 H   0  0  0  0  0  0  0  0  0  0  0  0
   12.6820   17.2269   32.5425 H   0  0  0  0  0  0  0  0  0  0  0  0
  1  2  2  0
  2  3  1  0
  2  4  1  0
  4  5  2  0
  5  6  1  0
  6  7  2  0
  7  8  1  0
  8  9  1  0
  9 10  2  0
 10 11  1  0
 11 12  1  0
 12 13  1  0
 13 14  2  0
 14 15  1  0
 15 16  2  0
 16 17  1  0
 17 18  1  0
 17 19  2  0
 10 20  1  0
 20 21  1  0
 21 22  2  0
 22 23  1  0
 23 24  2  0
 24 25  1  0
 24 26  1  0
 26 27  2  0
 20 28  2  0
  7 29  1  0
 29 30  2  0
 30  4  1  0
 28  8  1  0
 19 13  1  0
 27 21  1  0
  5 31  1  0
  6 32  1  0
  9 33  1  0
 11 34  1  0
 11 35  1  0
 12 36  1  0
 14 37  1  0
 15 38  1  0
 16 39  1  0
 19 40  1  0
 22 41  1  0
 23 42  1  0
 26 43  1  0
 27 44  1  0
 29 45  1  0
 30 46  1  0
M  CHG  1   3  -1
M  END
>  <meeko>  (4) 
{"is_sidechain": [false], "free_energy": -6.919, "intermolecular_energy": -8.276, "internal_energy": -2.394}

> <PREPARED_BY>
siam chowdhury
Computational and Medicinal Chemistry
[Dr. Alam's Research Team] www.alamresearch.org
Arkansas State University

$$$$
5sa23_out
     RDKit          3D

 46 49  0  0  0  0  0  0  0  0999 V2000
   14.3750   18.9890   34.8800 O   0  0  0  0  0  0  0  0  0  0  0  0
   14.4160   18.6870   33.6970 C   0  0  0  0  0  0  0  0  0  0  0  0
   15.4760   18.0650   33.1380 O   0  0  0  0  0  0  0  0  0  0  0  0
   13.3190   19.0010   32.7470 C   0  0  0  0  0  0  0  0  0  0  0  0
   13.1840   20.3230   32.3040 C   0  0  0  0  0  0  0  0  0  0  0  0
   12.1500   20.6740   31.4260 C   0  0  0  0  0  0  0  0  0  0  0  0
   11.2310   19.7070   30.9920 C   0  0  0  0  0  0  0  0  0  0  0  0
   10.1790   20.0790   30.1020 N   0  0  0  0  0  0  0  0  0  0  0  0
   10.2410   20.9710   29.0620 C   0  0  0  0  0  0  0  0  0  0  0  0
    8.9840   21.0380   28.4950 C   0  0  0  0  0  0  0  0  0  0  0  0
    8.5890   21.8750   27.3160 C   0  0  0  0  0  0  0  0  0  0  0  0
    8.2010   21.0940   26.1380 N   0  0  0  0  0  0  0  0  0  0  0  0
    6.8430   20.9050   25.8610 C   0  0  0  0  0  0  0  0  0  0  0  0
    5.9430   21.9480   26.1370 C   0  0  0  0  0  0  0  0  0  0  0  0
    4.5770   21.8300   25.8570 C   0  0  0  0  0  0  0  0  0  0  0  0
    4.0940   20.6700   25.2620 C   0  0  0  0  0  0  0  0  0  0  0  0
    4.9820   19.6480   24.9530 C   0  0  0  0  0  0  0  0  0  0  0  0
    4.5220   18.5370   24.3630 F   0  0  0  0  0  0  0  0  0  0  0  0
    6.3430   19.7580   25.2380 C   0  0  0  0  0  0  0  0  0  0  0  0
    8.1840   20.1620   29.2920 C   0  0  0  0  0  0  0  0  0  0  0  0
    6.7390   19.8930   29.2080 C   0  0  0  0  0  0  0  0  0  0  0  0
    6.2560   18.6560   28.7490 C   0  0  0  0  0  0  0  0  0  0  0  0
    4.8880   18.3890   28.6760 C   0  0  0  0  0  0  0  0  0  0  0  0
    3.9850   19.3770   29.0320 C   0  0  0  0  0  0  0  0  0  0  0  0
    2.6710   19.1280   28.9470 F   0  0  0  0  0  0  0  0  0  0  0  0
    4.4290   20.6220   29.4620 C   0  0  0  0  0  0  0  0  0  0  0  0
    5.8010   20.8790   29.5530 C   0  0  0  0  0  0  0  0  0  0  0  0
    8.9380   19.5510   30.2210 N   0  0  0  0  0  0  0  0  0  0  0  0
   11.3600   18.3860   31.4500 C   0  0  0  0  0  0  0  0  0  0  0  0
   12.3960   18.0370   32.3270 C   0  0  0  0  0  0  0  0  0  0  0  0
   13.8938   21.0900   32.6474 H   0  0  0  0  0  0  0  0  0  0  0  0
   12.0584   21.7126   31.0754 H   0  0  0  0  0  0  0  0  0  0  0  0
   11.1306   21.5312   28.7384 H   0  0  0  0  0  0  0  0  0  0  0  0
    7.7373   22.5065   27.6090 H   0  0  0  0  0  0  0  0  0  0  0  0
    9.4731   22.4646   27.0318 H   0  0  0  0  0  0  0  0  0  0  0  0
    8.8880   20.7070   25.5500 H   0  0  0  0  0  0  0  0  0  0  0  0
    6.3211   22.8794   26.5838 H   0  0  0  0  0  0  0  0  0  0  0  0
    3.8888   22.6510   26.1065 H   0  0  0  0  0  0  0  0  0  0  0  0
    3.0222   20.5631   25.0389 H   0  0  0  0  0  0  0  0  0  0  0  0
    7.0261   18.9381   24.9712 H   0  0  0  0  0  0  0  0  0  0  0  0
    6.9723   17.8804   28.4402 H   0  0  0  0  0  0  0  0  0  0  0  0
    4.5309   17.4045   28.3394 H   0  0  0  0  0  0  0  0  0  0  0  0
    3.7029   21.4036   29.7302 H   0  0  0  0  0  0  0  0  0  0  0  0
    6.1486   21.8638   29.8984 H   0  0  0  0  0  0  0  0  0  0  0  0
   10.6434   17.6202   31.1184 H   0  0  0  0  0  0  0  0  0  0  0  0
   12.4838   17.0011   32.6865 H   0  0  0  0  0  0  0  0  0  0  0  0
  1  2  2  0
  2  3  1  0
  2  4  1  0
  4  5  2  0
  5  6  1  0
  6  7  2  0
  7  8  1  0
  8  9  1  0
  9 10  2  0
 10 11  1  0
 11 12  1  0
 12 13  1  0
 13 14  2  0
 14 15  1  0
 15 16  2  0
 16 17  1  0
 17 18  1  0
 17 19  2  0
 10 20  1  0
 20 21  1  0
 21 22  2  0
 22 23  1  0
 23 24  2  0
 24 25  1  0
 24 26  1  0
 26 27  2  0
 20 28  2  0
  7 29  1  0
 29 30  2  0
 30  4  1  0
 28  8  1  0
 19 13  1  0
 27 21  1  0
  5 31  1  0
  6 32  1  0
  9 33  1  0
 11 34  1  0
 11 35  1  0
 12 36  1  0
 14 37  1  0
 15 38  1  0
 16 39  1  0
 19 40  1  0
 22 41  1  0
 23 42  1  0
 26 43  1  0
 27 44  1  0
 29 45  1  0
 30 46  1  0
M  CHG  1   3  -1
M  END
>  <meeko>  (5) 
{"is_sidechain": [false], "free_energy": -6.772, "intermolecular_energy": -8.265, "internal_energy": -2.206}

> <PREPARED_BY>
siam chowdhury
Computational and Medicinal Chemistry
[Dr. Alam's Research Team] www.alamresearch.org
Arkansas State University

$$$$
5sa23_out
     RDKit          3D

 46 49  0  0  0  0  0  0  0  0999 V2000
   15.3880   18.3250   33.1550 O   0  0  0  0  0  0  0  0  0  0  0  0
   14.9000   19.4110   32.8810 C   0  0  0  0  0  0  0  0  0  0  0  0
   15.5130   20.5800   33.1640 O   0  0  0  0  0  0  0  0  0  0  0  0
   13.5680   19.5570   32.2400 C   0  0  0  0  0  0  0  0  0  0  0  0
   12.7650   18.4170   32.1130 C   0  0  0  0  0  0  0  0  0  0  0  0
   11.5110   18.4990   31.4940 C   0  0  0  0  0  0  0  0  0  0  0  0
   11.0530   19.7230   30.9830 C   0  0  0  0  0  0  0  0  0  0  0  0
    9.7750   19.7930   30.3500 N   0  0  0  0  0  0  0  0  0  0  0  0
    8.6260   19.1370   30.7130 C   0  0  0  0  0  0  0  0  0  0  0  0
    7.6460   19.4800   29.8030 C   0  0  0  0  0  0  0  0  0  0  0  0
    6.2230   19.0120   29.8180 C   0  0  0  0  0  0  0  0  0  0  0  0
    5.2820   19.9920   30.3680 N   0  0  0  0  0  0  0  0  0  0  0  0
    4.7920   21.0070   29.5400 C   0  0  0  0  0  0  0  0  0  0  0  0
    5.0310   22.3450   29.8950 C   0  0  0  0  0  0  0  0  0  0  0  0
    4.5890   23.4050   29.0940 C   0  0  0  0  0  0  0  0  0  0  0  0
    3.9270   23.1380   27.9020 C   0  0  0  0  0  0  0  0  0  0  0  0
    3.7170   21.8170   27.5270 C   0  0  0  0  0  0  0  0  0  0  0  0
    3.0940   21.5570   26.3690 F   0  0  0  0  0  0  0  0  0  0  0  0
    4.1470   20.7580   28.3250 C   0  0  0  0  0  0  0  0  0  0  0  0
    8.3060   20.3400   28.8720 C   0  0  0  0  0  0  0  0  0  0  0  0
    7.7800   20.9500   27.6390 C   0  0  0  0  0  0  0  0  0  0  0  0
    7.7980   22.3420   27.4530 C   0  0  0  0  0  0  0  0  0  0  0  0
    7.3100   22.9280   26.2830 C   0  0  0  0  0  0  0  0  0  0  0  0
    6.7660   22.1210   25.2980 C   0  0  0  0  0  0  0  0  0  0  0  0
    6.2830   22.6810   24.1810 F   0  0  0  0  0  0  0  0  0  0  0  0
    6.7070   20.7420   25.4630 C   0  0  0  0  0  0  0  0  0  0  0  0
    7.2140   20.1570   26.6280 C   0  0  0  0  0  0  0  0  0  0  0  0
    9.5760   20.5600   29.2520 N   0  0  0  0  0  0  0  0  0  0  0  0
   11.8670   20.8610   31.0990 C   0  0  0  0  0  0  0  0  0  0  0  0
   13.1210   20.7760   31.7200 C   0  0  0  0  0  0  0  0  0  0  0  0
   13.1209   17.4514   32.5015 H   0  0  0  0  0  0  0  0  0  0  0  0
   10.8827   17.6002   31.4082 H   0  0  0  0  0  0  0  0  0  0  0  0
    8.5072   18.4609   31.5725 H   0  0  0  0  0  0  0  0  0  0  0  0
    5.9221   18.7848   28.7846 H   0  0  0  0  0  0  0  0  0  0  0  0
    6.1839   18.1289   30.4727 H   0  0  0  0  0  0  0  0  0  0  0  0
    4.9990   19.9370   31.3090 H   0  0  0  0  0  0  0  0  0  0  0  0
    5.5780   22.5650   30.8236 H   0  0  0  0  0  0  0  0  0  0  0  0
    4.7651   24.4447   29.4071 H   0  0  0  0  0  0  0  0  0  0  0  0
    3.5740   23.9615   27.2639 H   0  0  0  0  0  0  0  0  0  0  0  0
    3.9780   19.7217   27.9972 H   0  0  0  0  0  0  0  0  0  0  0  0
    8.2057   22.9852   28.2468 H   0  0  0  0  0  0  0  0  0  0  0  0
    7.3572   24.0183   26.1455 H   0  0  0  0  0  0  0  0  0  0  0  0
    6.2623   20.1119   24.6787 H   0  0  0  0  0  0  0  0  0  0  0  0
    7.1688   19.0651   26.7533 H   0  0  0  0  0  0  0  0  0  0  0  0
   11.5187   21.8252   30.7002 H   0  0  0  0  0  0  0  0  0  0  0  0
   13.7555   21.6711   31.7986 H   0  0  0  0  0  0  0  0  0  0  0  0
  1  2  2  0
  2  3  1  0
  2  4  1  0
  4  5  2  0
  5  6  1  0
  6  7  2  0
  7  8  1  0
  8  9  1  0
  9 10  2  0
 10 11  1  0
 11 12  1  0
 12 13  1  0
 13 14  2  0
 14 15  1  0
 15 16  2  0
 16 17  1  0
 17 18  1  0
 17 19  2  0
 10 20  1  0
 20 21  1  0
 21 22  2  0
 22 23  1  0
 23 24  2  0
 24 25  1  0
 24 26  1  0
 26 27  2  0
 20 28  2  0
  7 29  1  0
 29 30  2  0
 30  4  1  0
 28  8  1  0
 19 13  1  0
 27 21  1  0
  5 31  1  0
  6 32  1  0
  9 33  1  0
 11 34  1  0
 11 35  1  0
 12 36  1  0
 14 37  1  0
 15 38  1  0
 16 39  1  0
 19 40  1  0
 22 41  1  0
 23 42  1  0
 26 43  1  0
 27 44  1  0
 29 45  1  0
 30 46  1  0
M  CHG  1   3  -1
M  END
>  <meeko>  (6) 
{"is_sidechain": [false], "free_energy": -6.732, "intermolecular_energy": -8.065, "internal_energy": -2.352}

> <PREPARED_BY>
siam chowdhury
Computational and Medicinal Chemistry
[Dr. Alam's Research Team] www.alamresearch.org
Arkansas State University

$$$$
5sa23_out
     RDKit          3D

 46 49  0  0  0  0  0  0  0  0999 V2000
    3.8210   16.0440   27.9900 O   0  0  0  0  0  0  0  0  0  0  0  0
    3.9090   15.7490   29.1720 C   0  0  0  0  0  0  0  0  0  0  0  0
    2.8330   15.4570   29.9340 O   0  0  0  0  0  0  0  0  0  0  0  0
    5.2030   15.7120   29.8990 C   0  0  0  0  0  0  0  0  0  0  0  0
    5.9540   16.8920   29.9750 C   0  0  0  0  0  0  0  0  0  0  0  0
    7.1930   16.9020   30.6290 C   0  0  0  0  0  0  0  0  0  0  0  0
    7.7000   15.7260   31.2030 C   0  0  0  0  0  0  0  0  0  0  0  0
    8.9660   15.7480   31.8620 N   0  0  0  0  0  0  0  0  0  0  0  0
    9.4450   14.8510   32.7830 C   0  0  0  0  0  0  0  0  0  0  0  0
   10.6970   15.2800   33.1720 C   0  0  0  0  0  0  0  0  0  0  0  0
   11.6020   14.5970   34.1510 C   0  0  0  0  0  0  0  0  0  0  0  0
   11.6130   15.2150   35.4790 N   0  0  0  0  0  0  0  0  0  0  0  0
   12.8330   15.3900   36.1420 C   0  0  0  0  0  0  0  0  0  0  0  0
   13.9720   14.7310   35.6490 C   0  0  0  0  0  0  0  0  0  0  0  0
   15.2250   14.8860   36.2520 C   0  0  0  0  0  0  0  0  0  0  0  0
   15.3640   15.7350   37.3440 C   0  0  0  0  0  0  0  0  0  0  0  0
   14.2500   16.4170   37.8160 C   0  0  0  0  0  0  0  0  0  0  0  0
   14.3840   17.2500   38.8570 F   0  0  0  0  0  0  0  0  0  0  0  0
   12.9970   16.2590   37.2240 C   0  0  0  0  0  0  0  0  0  0  0  0
   10.8970   16.4990   32.4520 C   0  0  0  0  0  0  0  0  0  0  0  0
   12.0230   17.4450   32.5250 C   0  0  0  0  0  0  0  0  0  0  0  0
   13.1230   17.2010   33.3630 C   0  0  0  0  0  0  0  0  0  0  0  0
   14.2000   18.0880   33.4310 C   0  0  0  0  0  0  0  0  0  0  0  0
   14.1660   19.2520   32.6820 C   0  0  0  0  0  0  0  0  0  0  0  0
   15.1900   20.1130   32.7590 F   0  0  0  0  0  0  0  0  0  0  0  0
   13.0780   19.5390   31.8660 C   0  0  0  0  0  0  0  0  0  0  0  0
   12.0110   18.6380   31.7850 C   0  0  0  0  0  0  0  0  0  0  0  0
    9.8640   16.7330   31.6260 N   0  0  0  0  0  0  0  0  0  0  0  0
    6.9510   14.5420   31.1120 C   0  0  0  0  0  0  0  0  0  0  0  0
    5.7110   14.5350   30.4570 C   0  0  0  0  0  0  0  0  0  0  0  0
    5.5689   17.8158   29.5187 H   0  0  0  0  0  0  0  0  0  0  0  0
    7.7709   17.8358   30.6928 H   0  0  0  0  0  0  0  0  0  0  0  0
    8.9247   13.9522   33.1457 H   0  0  0  0  0  0  0  0  0  0  0  0
   11.2725   13.5529   34.2574 H   0  0  0  0  0  0  0  0  0  0  0  0
   12.6239   14.6783   33.7521 H   0  0  0  0  0  0  0  0  0  0  0  0
   10.7720   15.5040   35.9010 H   0  0  0  0  0  0  0  0  0  0  0  0
   13.8763   14.0783   34.7688 H   0  0  0  0  0  0  0  0  0  0  0  0
   16.0964   14.3384   35.8637 H   0  0  0  0  0  0  0  0  0  0  0  0
   16.3433   15.8649   37.8278 H   0  0  0  0  0  0  0  0  0  0  0  0
   12.1340   16.8210   37.6106 H   0  0  0  0  0  0  0  0  0  0  0  0
   13.1369   16.2905   33.9801 H   0  0  0  0  0  0  0  0  0  0  0  0
   15.0653   17.8643   34.0723 H   0  0  0  0  0  0  0  0  0  0  0  0
   13.0560   20.4728   31.2850 H   0  0  0  0  0  0  0  0  0  0  0  0
   11.1537   18.8666   31.1348 H   0  0  0  0  0  0  0  0  0  0  0  0
    7.3392   13.6141   31.5572 H   0  0  0  0  0  0  0  0  0  0  0  0
    5.1360   13.6002   30.3820 H   0  0  0  0  0  0  0  0  0  0  0  0
  1  2  2  0
  2  3  1  0
  2  4  1  0
  4  5  2  0
  5  6  1  0
  6  7  2  0
  7  8  1  0
  8  9  1  0
  9 10  2  0
 10 11  1  0
 11 12  1  0
 12 13  1  0
 13 14  2  0
 14 15  1  0
 15 16  2  0
 16 17  1  0
 17 18  1  0
 17 19  2  0
 10 20  1  0
 20 21  1  0
 21 22  2  0
 22 23  1  0
 23 24  2  0
 24 25  1  0
 24 26  1  0
 26 27  2  0
 20 28  2  0
  7 29  1  0
 29 30  2  0
 30  4  1  0
 28  8  1  0
 19 13  1  0
 27 21  1  0
  5 31  1  0
  6 32  1  0
  9 33  1  0
 11 34  1  0
 11 35  1  0
 12 36  1  0
 14 37  1  0
 15 38  1  0
 16 39  1  0
 19 40  1  0
 22 41  1  0
 23 42  1  0
 26 43  1  0
 27 44  1  0
 29 45  1  0
 30 46  1  0
M  CHG  1   3  -1
M  END
>  <meeko>  (7) 
{"is_sidechain": [false], "free_energy": -6.659, "intermolecular_energy": -9.641, "internal_energy": -0.677}

> <PREPARED_BY>
siam chowdhury
Computational and Medicinal Chemistry
[Dr. Alam's Research Team] www.alamresearch.org
Arkansas State University

$$$$
5sa23_out
     RDKit          3D

 46 49  0  0  0  0  0  0  0  0999 V2000
   14.8880   19.2310   33.9780 O   0  0  0  0  0  0  0  0  0  0  0  0
   14.6740   19.0440   32.7900 C   0  0  0  0  0  0  0  0  0  0  0  0
   15.6100   18.5570   31.9470 O   0  0  0  0  0  0  0  0  0  0  0  0
   13.3740   19.3610   32.1450 C   0  0  0  0  0  0  0  0  0  0  0  0
   12.4330   18.3330   32.0090 C   0  0  0  0  0  0  0  0  0  0  0  0
   11.2020   18.5780   31.3860 C   0  0  0  0  0  0  0  0  0  0  0  0
   10.9050   19.8530   30.8800 C   0  0  0  0  0  0  0  0  0  0  0  0
    9.6500   20.0880   30.2430 N   0  0  0  0  0  0  0  0  0  0  0  0
    8.4080   19.6960   30.6750 C   0  0  0  0  0  0  0  0  0  0  0  0
    7.4890   20.1140   29.7340 C   0  0  0  0  0  0  0  0  0  0  0  0
    6.0040   19.9190   29.7990 C   0  0  0  0  0  0  0  0  0  0  0  0
    5.5970   18.5220   29.9680 N   0  0  0  0  0  0  0  0  0  0  0  0
    5.3860   17.7300   28.8340 C   0  0  0  0  0  0  0  0  0  0  0  0
    4.8810   16.4290   29.0020 C   0  0  0  0  0  0  0  0  0  0  0  0
    4.6250   15.5980   27.9060 C   0  0  0  0  0  0  0  0  0  0  0  0
    4.8390   16.0710   26.6170 C   0  0  0  0  0  0  0  0  0  0  0  0
    5.3050   17.3680   26.4410 C   0  0  0  0  0  0  0  0  0  0  0  0
    5.4960   17.8330   25.1990 F   0  0  0  0  0  0  0  0  0  0  0  0
    5.5710   18.1970   27.5300 C   0  0  0  0  0  0  0  0  0  0  0  0
    8.2760   20.7350   28.7150 C   0  0  0  0  0  0  0  0  0  0  0  0
    7.8460   21.2960   27.4230 C   0  0  0  0  0  0  0  0  0  0  0  0
    7.1980   22.5400   27.3520 C   0  0  0  0  0  0  0  0  0  0  0  0
    6.7950   23.0840   26.1310 C   0  0  0  0  0  0  0  0  0  0  0  0
    7.0100   22.3660   24.9660 C   0  0  0  0  0  0  0  0  0  0  0  0
    6.6100   22.8780   23.7950 F   0  0  0  0  0  0  0  0  0  0  0  0
    7.6230   21.1190   25.0040 C   0  0  0  0  0  0  0  0  0  0  0  0
    8.0420   20.5860   26.2280 C   0  0  0  0  0  0  0  0  0  0  0  0
    9.5720   20.7570   29.0690 N   0  0  0  0  0  0  0  0  0  0  0  0
   11.8580   20.8770   31.0060 C   0  0  0  0  0  0  0  0  0  0  0  0
   13.0880   20.6300   31.6310 C   0  0  0  0  0  0  0  0  0  0  0  0
   12.6613   17.3279   32.3932 H   0  0  0  0  0  0  0  0  0  0  0  0
   10.4647   17.7670   31.2930 H   0  0  0  0  0  0  0  0  0  0  0  0
    8.1853   19.1482   31.6026 H   0  0  0  0  0  0  0  0  0  0  0  0
    5.6152   20.4986   30.6492 H   0  0  0  0  0  0  0  0  0  0  0  0
    5.5945   20.2572   28.8357 H   0  0  0  0  0  0  0  0  0  0  0  0
    5.4720   18.1460   30.8690 H   0  0  0  0  0  0  0  0  0  0  0  0
    4.6827   16.0560   30.0177 H   0  0  0  0  0  0  0  0  0  0  0  0
    4.2557   14.5740   28.0640 H   0  0  0  0  0  0  0  0  0  0  0  0
    4.6420   15.4269   25.7473 H   0  0  0  0  0  0  0  0  0  0  0  0
    5.9282   19.2237   27.3619 H   0  0  0  0  0  0  0  0  0  0  0  0
    7.0036   23.0984   28.2795 H   0  0  0  0  0  0  0  0  0  0  0  0
    6.3122   24.0717   26.0945 H   0  0  0  0  0  0  0  0  0  0  0  0
    7.7783   20.5525   24.0740 H   0  0  0  0  0  0  0  0  0  0  0  0
    8.5300   19.6005   26.2541 H   0  0  0  0  0  0  0  0  0  0  0  0
   11.6375   21.8798   30.6114 H   0  0  0  0  0  0  0  0  0  0  0  0
   13.8308   21.4367   31.7175 H   0  0  0  0  0  0  0  0  0  0  0  0
  1  2  2  0
  2  3  1  0
  2  4  1  0
  4  5  2  0
  5  6  1  0
  6  7  2  0
  7  8  1  0
  8  9  1  0
  9 10  2  0
 10 11  1  0
 11 12  1  0
 12 13  1  0
 13 14  2  0
 14 15  1  0
 15 16  2  0
 16 17  1  0
 17 18  1  0
 17 19  2  0
 10 20  1  0
 20 21  1  0
 21 22  2  0
 22 23  1  0
 23 24  2  0
 24 25  1  0
 24 26  1  0
 26 27  2  0
 20 28  2  0
  7 29  1  0
 29 30  2  0
 30  4  1  0
 28  8  1  0
 19 13  1  0
 27 21  1  0
  5 31  1  0
  6 32  1  0
  9 33  1  0
 11 34  1  0
 11 35  1  0
 12 36  1  0
 14 37  1  0
 15 38  1  0
 16 39  1  0
 19 40  1  0
 22 41  1  0
 23 42  1  0
 26 43  1  0
 27 44  1  0
 29 45  1  0
 30 46  1  0
M  CHG  1   3  -1
M  END
>  <meeko>  (8) 
{"is_sidechain": [false], "free_energy": -6.634, "intermolecular_energy": -8.928, "internal_energy": -1.357}

> <PREPARED_BY>
siam chowdhury
Computational and Medicinal Chemistry
[Dr. Alam's Research Team] www.alamresearch.org
Arkansas State University

$$$$
5sa23_out
     RDKit          3D

 46 49  0  0  0  0  0  0  0  0999 V2000
   15.6420   18.5430   32.5690 O   0  0  0  0  0  0  0  0  0  0  0  0
   14.5550   18.6560   33.1150 C   0  0  0  0  0  0  0  0  0  0  0  0
   14.3740   18.4390   34.4350 O   0  0  0  0  0  0  0  0  0  0  0  0
   13.3160   19.0120   32.3770 C   0  0  0  0  0  0  0  0  0  0  0  0
   12.3670   18.0080   32.1520 C   0  0  0  0  0  0  0  0  0  0  0  0
   11.1940   18.2890   31.4400 C   0  0  0  0  0  0  0  0  0  0  0  0
   10.9640   19.5770   30.9340 C   0  0  0  0  0  0  0  0  0  0  0  0
    9.7670   19.8490   30.2060 N   0  0  0  0  0  0  0  0  0  0  0  0
    8.5100   19.3560   30.4500 C   0  0  0  0  0  0  0  0  0  0  0  0
    7.6680   19.8640   29.4810 C   0  0  0  0  0  0  0  0  0  0  0  0
    6.1960   19.6060   29.3650 C   0  0  0  0  0  0  0  0  0  0  0  0
    5.8640   18.4040   28.5960 N   0  0  0  0  0  0  0  0  0  0  0  0
    4.9700   17.4720   29.1360 C   0  0  0  0  0  0  0  0  0  0  0  0
    3.5950   17.7600   29.1120 C   0  0  0  0  0  0  0  0  0  0  0  0
    2.6510   16.8570   29.6130 C   0  0  0  0  0  0  0  0  0  0  0  0
    3.0690   15.6310   30.1170 C   0  0  0  0  0  0  0  0  0  0  0  0
    4.4230   15.3250   30.1110 C   0  0  0  0  0  0  0  0  0  0  0  0
    4.8270   14.1360   30.5800 F   0  0  0  0  0  0  0  0  0  0  0  0
    5.3690   16.2240   29.6220 C   0  0  0  0  0  0  0  0  0  0  0  0
    8.5190   20.6470   28.6410 C   0  0  0  0  0  0  0  0  0  0  0  0
    8.1900   21.3620   27.3970 C   0  0  0  0  0  0  0  0  0  0  0  0
    8.1510   20.6930   26.1630 C   0  0  0  0  0  0  0  0  0  0  0  0
    7.8300   21.3620   24.9800 C   0  0  0  0  0  0  0  0  0  0  0  0
    7.5770   22.7230   25.0190 C   0  0  0  0  0  0  0  0  0  0  0  0
    7.2850   23.3700   23.8830 F   0  0  0  0  0  0  0  0  0  0  0  0
    7.6360   23.4210   26.2190 C   0  0  0  0  0  0  0  0  0  0  0  0
    7.9390   22.7440   27.4050 C   0  0  0  0  0  0  0  0  0  0  0  0
    9.7700   20.6690   29.1280 N   0  0  0  0  0  0  0  0  0  0  0  0
   11.9250   20.5790   31.1500 C   0  0  0  0  0  0  0  0  0  0  0  0
   13.0970   20.2950   31.8630 C   0  0  0  0  0  0  0  0  0  0  0  0
   12.5434   16.9926   32.5365 H   0  0  0  0  0  0  0  0  0  0  0  0
   10.4495   17.4958   31.2768 H   0  0  0  0  0  0  0  0  0  0  0  0
    8.2250   18.6791   31.2688 H   0  0  0  0  0  0  0  0  0  0  0  0
    5.7828   19.4943   30.3783 H   0  0  0  0  0  0  0  0  0  0  0  0
    5.7630   20.4609   28.8250 H   0  0  0  0  0  0  0  0  0  0  0  0
    6.2650   18.2530   27.7100 H   0  0  0  0  0  0  0  0  0  0  0  0
    3.2531   18.7166   28.6900 H   0  0  0  0  0  0  0  0  0  0  0  0
    1.5820   17.1164   29.6080 H   0  0  0  0  0  0  0  0  0  0  0  0
    2.3369   14.9130   30.5152 H   0  0  0  0  0  0  0  0  0  0  0  0
    6.4343   15.9500   29.6186 H   0  0  0  0  0  0  0  0  0  0  0  0
    8.3785   19.6174   26.1274 H   0  0  0  0  0  0  0  0  0  0  0  0
    7.7787   20.8140   24.0276 H   0  0  0  0  0  0  0  0  0  0  0  0
    7.4448   24.5041   26.2363 H   0  0  0  0  0  0  0  0  0  0  0  0
    7.9811   23.2995   28.3535 H   0  0  0  0  0  0  0  0  0  0  0  0
   11.7561   21.5924   30.7569 H   0  0  0  0  0  0  0  0  0  0  0  0
   13.8479   21.0835   32.0194 H   0  0  0  0  0  0  0  0  0  0  0  0
  1  2  2  0
  2  3  1  0
  2  4  1  0
  4  5  2  0
  5  6  1  0
  6  7  2  0
  7  8  1  0
  8  9  1  0
  9 10  2  0
 10 11  1  0
 11 12  1  0
 12 13  1  0
 13 14  2  0
 14 15  1  0
 15 16  2  0
 16 17  1  0
 17 18  1  0
 17 19  2  0
 10 20  1  0
 20 21  1  0
 21 22  2  0
 22 23  1  0
 23 24  2  0
 24 25  1  0
 24 26  1  0
 26 27  2  0
 20 28  2  0
  7 29  1  0
 29 30  2  0
 30  4  1  0
 28  8  1  0
 19 13  1  0
 27 21  1  0
  5 31  1  0
  6 32  1  0
  9 33  1  0
 11 34  1  0
 11 35  1  0
 12 36  1  0
 14 37  1  0
 15 38  1  0
 16 39  1  0
 19 40  1  0
 22 41  1  0
 23 42  1  0
 26 43  1  0
 27 44  1  0
 29 45  1  0
 30 46  1  0
M  CHG  1   3  -1
M  END
>  <meeko>  (9) 
{"is_sidechain": [false], "free_energy": -6.615, "intermolecular_energy": -9.265, "internal_energy": -0.993}

> <PREPARED_BY>
siam chowdhury
Computational and Medicinal Chemistry
[Dr. Alam's Research Team] www.alamresearch.org
Arkansas State University

$$$$
5sa23_out
     RDKit          3D

 46 49  0  0  0  0  0  0  0  0999 V2000
   15.1560   18.0680   33.1710 O   0  0  0  0  0  0  0  0  0  0  0  0
   14.4540   19.0650   33.2350 C   0  0  0  0  0  0  0  0  0  0  0  0
   14.7140   20.0900   34.0740 O   0  0  0  0  0  0  0  0  0  0  0  0
   13.2240   19.2380   32.4200 C   0  0  0  0  0  0  0  0  0  0  0  0
   12.9200   20.5190   31.9430 C   0  0  0  0  0  0  0  0  0  0  0  0
   11.7580   20.7370   31.1900 C   0  0  0  0  0  0  0  0  0  0  0  0
   10.8810   19.6760   30.9180 C   0  0  0  0  0  0  0  0  0  0  0  0
    9.6990   19.9120   30.1550 N   0  0  0  0  0  0  0  0  0  0  0  0
    9.4720   20.9240   29.2570 C   0  0  0  0  0  0  0  0  0  0  0  0
    8.1860   20.7770   28.7790 C   0  0  0  0  0  0  0  0  0  0  0  0
    7.5140   21.6500   27.7620 C   0  0  0  0  0  0  0  0  0  0  0  0
    7.7610   21.2430   26.3770 N   0  0  0  0  0  0  0  0  0  0  0  0
    6.7360   20.6220   25.6540 C   0  0  0  0  0  0  0  0  0  0  0  0
    6.1560   21.3110   24.5750 C   0  0  0  0  0  0  0  0  0  0  0  0
    5.1450   20.7340   23.7970 C   0  0  0  0  0  0  0  0  0  0  0  0
    4.7220   19.4380   24.0690 C   0  0  0  0  0  0  0  0  0  0  0  0
    5.3140   18.7380   25.1130 C   0  0  0  0  0  0  0  0  0  0  0  0
    4.9210   17.4820   25.3660 F   0  0  0  0  0  0  0  0  0  0  0  0
    6.3150   19.3120   25.8950 C   0  0  0  0  0  0  0  0  0  0  0  0
    7.6690   19.6450   29.4820 C   0  0  0  0  0  0  0  0  0  0  0  0
    6.3160   19.0660   29.4420 C   0  0  0  0  0  0  0  0  0  0  0  0
    6.1160   17.6790   29.5310 C   0  0  0  0  0  0  0  0  0  0  0  0
    4.8350   17.1230   29.5040 C   0  0  0  0  0  0  0  0  0  0  0  0
    3.7390   17.9560   29.3520 C   0  0  0  0  0  0  0  0  0  0  0  0
    2.5100   17.4240   29.3090 F   0  0  0  0  0  0  0  0  0  0  0  0
    3.9040   19.3310   29.2310 C   0  0  0  0  0  0  0  0  0  0  0  0
    5.1870   19.8860   29.2780 C   0  0  0  0  0  0  0  0  0  0  0  0
    8.6170   19.1050   30.2660 N   0  0  0  0  0  0  0  0  0  0  0  0
   11.1830   18.3950   31.4110 C   0  0  0  0  0  0  0  0  0  0  0  0
   12.3460   18.1800   32.1630 C   0  0  0  0  0  0  0  0  0  0  0  0
   13.5966   21.3586   32.1604 H   0  0  0  0  0  0  0  0  0  0  0  0
   11.5326   21.7446   30.8105 H   0  0  0  0  0  0  0  0  0  0  0  0
   10.1859   21.7102   28.9700 H   0  0  0  0  0  0  0  0  0  0  0  0
    6.4294   21.6219   27.9434 H   0  0  0  0  0  0  0  0  0  0  0  0
    7.9348   22.6596   27.8788 H   0  0  0  0  0  0  0  0  0  0  0  0
    8.6380   21.4030   25.9590 H   0  0  0  0  0  0  0  0  0  0  0  0
    6.5043   22.3267   24.3363 H   0  0  0  0  0  0  0  0  0  0  0  0
    4.6876   21.3034   22.9745 H   0  0  0  0  0  0  0  0  0  0  0  0
    3.9288   18.9727   23.4654 H   0  0  0  0  0  0  0  0  0  0  0  0
    6.7761   18.7300   26.7066 H   0  0  0  0  0  0  0  0  0  0  0  0
    6.9881   17.0151   29.6241 H   0  0  0  0  0  0  0  0  0  0  0  0
    4.6982   16.0360   29.6023 H   0  0  0  0  0  0  0  0  0  0  0  0
    3.0269   19.9815   29.0985 H   0  0  0  0  0  0  0  0  0  0  0  0
    5.3133   20.9748   29.1857 H   0  0  0  0  0  0  0  0  0  0  0  0
   10.5022   17.5558   31.2053 H   0  0  0  0  0  0  0  0  0  0  0  0
   12.5690   17.1757   32.5524 H   0  0  0  0  0  0  0  0  0  0  0  0
  1  2  2  0
  2  3  1  0
  2  4  1  0
  4  5  2  0
  5  6  1  0
  6  7  2  0
  7  8  1  0
  8  9  1  0
  9 10  2  0
 10 11  1  0
 11 12  1  0
 12 13  1  0
 13 14  2  0
 14 15  1  0
 15 16  2  0
 16 17  1  0
 17 18  1  0
 17 19  2  0
 10 20  1  0
 20 21  1  0
 21 22  2  0
 22 23  1  0
 23 24  2  0
 24 25  1  0
 24 26  1  0
 26 27  2  0
 20 28  2  0
  7 29  1  0
 29 30  2  0
 30  4  1  0
 28  8  1  0
 19 13  1  0
 27 21  1  0
  5 31  1  0
  6 32  1  0
  9 33  1  0
 11 34  1  0
 11 35  1  0
 12 36  1  0
 14 37  1  0
 15 38  1  0
 16 39  1  0
 19 40  1  0
 22 41  1  0
 23 42  1  0
 26 43  1  0
 27 44  1  0
 29 45  1  0
 30 46  1  0
M  CHG  1   3  -1
M  END
>  <meeko>  (10) 
{"is_sidechain": [false], "free_energy": -6.561, "intermolecular_energy": -8.928, "internal_energy": -1.258}

> <PREPARED_BY>
siam chowdhury
Computational and Medicinal Chemistry
[Dr. Alam's Research Team] www.alamresearch.org
Arkansas State University

$$$$
5sa23_out
     RDKit          3D

 46 49  0  0  0  0  0  0  0  0999 V2000
   15.0820   18.1760   33.4720 O   0  0  0  0  0  0  0  0  0  0  0  0
   14.8960   18.8220   32.4520 C   0  0  0  0  0  0  0  0  0  0  0  0
   15.9040   19.2430   31.6590 O   0  0  0  0  0  0  0  0  0  0  0  0
   13.5450   19.2390   31.9980 C   0  0  0  0  0  0  0  0  0  0  0  0
   12.5490   18.2600   31.8960 C   0  0  0  0  0  0  0  0  0  0  0  0
   11.2650   18.5990   31.4500 C   0  0  0  0  0  0  0  0  0  0  0  0
   10.9680   19.9220   31.0870 C   0  0  0  0  0  0  0  0  0  0  0  0
    9.6580   20.2540   30.6290 N   0  0  0  0  0  0  0  0  0  0  0  0
    8.7020   20.9860   31.2870 C   0  0  0  0  0  0  0  0  0  0  0  0
    7.5830   21.0310   30.4820 C   0  0  0  0  0  0  0  0  0  0  0  0
    6.2980   21.7390   30.7900 C   0  0  0  0  0  0  0  0  0  0  0  0
    6.0120   22.8630   29.8960 N   0  0  0  0  0  0  0  0  0  0  0  0
    5.1230   22.6800   28.8300 C   0  0  0  0  0  0  0  0  0  0  0  0
    5.4630   23.1990   27.5690 C   0  0  0  0  0  0  0  0  0  0  0  0
    4.6290   23.0250   26.4590 C   0  0  0  0  0  0  0  0  0  0  0  0
    3.4520   22.2960   26.5880 C   0  0  0  0  0  0  0  0  0  0  0  0
    3.1270   21.7510   27.8230 C   0  0  0  0  0  0  0  0  0  0  0  0
    2.0020   21.0330   27.9460 F   0  0  0  0  0  0  0  0  0  0  0  0
    3.9500   21.9280   28.9340 C   0  0  0  0  0  0  0  0  0  0  0  0
    7.9330   20.2500   29.3370 C   0  0  0  0  0  0  0  0  0  0  0  0
    7.1040   19.8780   28.1790 C   0  0  0  0  0  0  0  0  0  0  0  0
    5.9920   19.0330   28.3230 C   0  0  0  0  0  0  0  0  0  0  0  0
    5.1940   18.6830   27.2320 C   0  0  0  0  0  0  0  0  0  0  0  0
    5.5260   19.1540   25.9720 C   0  0  0  0  0  0  0  0  0  0  0  0
    4.7720   18.8070   24.9210 F   0  0  0  0  0  0  0  0  0  0  0  0
    6.6370   19.9680   25.7900 C   0  0  0  0  0  0  0  0  0  0  0  0
    7.4230   20.3320   26.8880 C   0  0  0  0  0  0  0  0  0  0  0  0
    9.2090   19.8370   29.4210 N   0  0  0  0  0  0  0  0  0  0  0  0
   11.9740   20.8980   31.1770 C   0  0  0  0  0  0  0  0  0  0  0  0
   13.2570   20.5560   31.6250 C   0  0  0  0  0  0  0  0  0  0  0  0
   12.7762   17.2186   32.1677 H   0  0  0  0  0  0  0  0  0  0  0  0
   10.4861   17.8250   31.3840 H   0  0  0  0  0  0  0  0  0  0  0  0
    8.8088   21.4526   32.2774 H   0  0  0  0  0  0  0  0  0  0  0  0
    5.4748   21.0138   30.7093 H   0  0  0  0  0  0  0  0  0  0  0  0
    6.3966   22.1539   31.8040 H   0  0  0  0  0  0  0  0  0  0  0  0
    6.4400   23.7380   30.0420 H   0  0  0  0  0  0  0  0  0  0  0  0
    6.4054   23.7542   27.4520 H   0  0  0  0  0  0  0  0  0  0  0  0
    4.9034   23.4632   25.4881 H   0  0  0  0  0  0  0  0  0  0  0  0
    2.7873   22.1530   25.7233 H   0  0  0  0  0  0  0  0  0  0  0  0
    3.6747   21.4735   29.8971 H   0  0  0  0  0  0  0  0  0  0  0  0
    5.7436   18.6374   29.3189 H   0  0  0  0  0  0  0  0  0  0  0  0
    4.3119   18.0407   27.3712 H   0  0  0  0  0  0  0  0  0  0  0  0
    6.8982   20.3259   24.7832 H   0  0  0  0  0  0  0  0  0  0  0  0
    8.2994   20.9800   26.7396 H   0  0  0  0  0  0  0  0  0  0  0  0
   11.7533   21.9378   30.8939 H   0  0  0  0  0  0  0  0  0  0  0  0
   14.0404   21.3260   31.6835 H   0  0  0  0  0  0  0  0  0  0  0  0
  1  2  2  0
  2  3  1  0
  2  4  1  0
  4  5  2  0
  5  6  1  0
  6  7  2  0
  7  8  1  0
  8  9  1  0
  9 10  2  0
 10 11  1  0
 11 12  1  0
 12 13  1  0
 13 14  2  0
 14 15  1  0
 15 16  2  0
 16 17  1  0
 17 18  1  0
 17 19  2  0
 10 20  1  0
 20 21  1  0
 21 22  2  0
 22 23  1  0
 23 24  2  0
 24 25  1  0
 24 26  1  0
 26 27  2  0
 20 28  2  0
  7 29  1  0
 29 30  2  0
 30  4  1  0
 28  8  1  0
 19 13  1  0
 27 21  1  0
  5 31  1  0
  6 32  1  0
  9 33  1  0
 11 34  1  0
 11 35  1  0
 12 36  1  0
 14 37  1  0
 15 38  1  0
 16 39  1  0
 19 40  1  0
 22 41  1  0
 23 42  1  0
 26 43  1  0
 27 44  1  0
 29 45  1  0
 30 46  1  0
M  CHG  1   3  -1
M  END
>  <meeko>  (11) 
{"is_sidechain": [false], "free_energy": -6.559, "intermolecular_energy": -7.899, "internal_energy": -2.284}

> <PREPARED_BY>
siam chowdhury
Computational and Medicinal Chemistry
[Dr. Alam's Research Team] www.alamresearch.org
Arkansas State University

$$$$
5sa23_out
     RDKit          3D

 46 49  0  0  0  0  0  0  0  0999 V2000
    5.8720   13.7480   30.6740 O   0  0  0  0  0  0  0  0  0  0  0  0
    6.1790   14.0460   31.8180 C   0  0  0  0  0  0  0  0  0  0  0  0
    5.3170   13.9570   32.8530 O   0  0  0  0  0  0  0  0  0  0  0  0
    7.5210   14.5680   32.1820 C   0  0  0  0  0  0  0  0  0  0  0  0
    7.8890   14.5650   33.5330 C   0  0  0  0  0  0  0  0  0  0  0  0
    9.1350   15.0690   33.9290 C   0  0  0  0  0  0  0  0  0  0  0  0
   10.0220   15.5950   32.9760 C   0  0  0  0  0  0  0  0  0  0  0  0
   11.2860   16.1100   33.3920 N   0  0  0  0  0  0  0  0  0  0  0  0
   12.1080   16.9650   32.7030 C   0  0  0  0  0  0  0  0  0  0  0  0
   13.2340   17.1720   33.4730 C   0  0  0  0  0  0  0  0  0  0  0  0
   14.3960   18.0520   33.1240 C   0  0  0  0  0  0  0  0  0  0  0  0
   14.4970   19.2560   33.9520 N   0  0  0  0  0  0  0  0  0  0  0  0
   13.9870   20.4650   33.4650 C   0  0  0  0  0  0  0  0  0  0  0  0
   13.9210   21.5690   34.3310 C   0  0  0  0  0  0  0  0  0  0  0  0
   13.4460   22.8120   33.8970 C   0  0  0  0  0  0  0  0  0  0  0  0
   13.0580   22.9760   32.5720 C   0  0  0  0  0  0  0  0  0  0  0  0
   13.1520   21.8990   31.7010 C   0  0  0  0  0  0  0  0  0  0  0  0
   12.7960   22.0590   30.4190 F   0  0  0  0  0  0  0  0  0  0  0  0
   13.6170   20.6570   32.1310 C   0  0  0  0  0  0  0  0  0  0  0  0
   13.0330   16.3560   34.6290 C   0  0  0  0  0  0  0  0  0  0  0  0
   13.9420   16.1110   35.7610 C   0  0  0  0  0  0  0  0  0  0  0  0
   15.0490   15.2570   35.6320 C   0  0  0  0  0  0  0  0  0  0  0  0
   15.9220   15.0270   36.6970 C   0  0  0  0  0  0  0  0  0  0  0  0
   15.6710   15.6280   37.9200 C   0  0  0  0  0  0  0  0  0  0  0  0
   16.4970   15.3960   38.9480 F   0  0  0  0  0  0  0  0  0  0  0  0
   14.5670   16.4550   38.0900 C   0  0  0  0  0  0  0  0  0  0  0  0
   13.7050   16.6980   37.0150 C   0  0  0  0  0  0  0  0  0  0  0  0
   11.8260   15.7670   34.5850 N   0  0  0  0  0  0  0  0  0  0  0  0
    9.6430   15.6090   31.6240 C   0  0  0  0  0  0  0  0  0  0  0  0
    8.3960   15.1030   31.2300 C   0  0  0  0  0  0  0  0  0  0  0  0
    7.1960   14.1647   34.2877 H   0  0  0  0  0  0  0  0  0  0  0  0
    9.4196   15.0525   34.9914 H   0  0  0  0  0  0  0  0  0  0  0  0
   11.9061   17.4057   31.7156 H   0  0  0  0  0  0  0  0  0  0  0  0
   15.3209   17.4692   33.2456 H   0  0  0  0  0  0  0  0  0  0  0  0
   14.2426   18.3883   32.0880 H   0  0  0  0  0  0  0  0  0  0  0  0
   14.9200   19.2160   34.8390 H   0  0  0  0  0  0  0  0  0  0  0  0
   14.2502   21.4540   35.3743 H   0  0  0  0  0  0  0  0  0  0  0  0
   13.3800   23.6549   34.6007 H   0  0  0  0  0  0  0  0  0  0  0  0
   12.6812   23.9470   32.2182 H   0  0  0  0  0  0  0  0  0  0  0  0
   13.6931   19.8239   31.4167 H   0  0  0  0  0  0  0  0  0  0  0  0
   15.2327   14.7575   34.6693 H   0  0  0  0  0  0  0  0  0  0  0  0
   16.7991   14.3761   36.5667 H   0  0  0  0  0  0  0  0  0  0  0  0
   14.3712   16.9179   39.0684 H   0  0  0  0  0  0  0  0  0  0  0  0
   12.8335   17.3549   37.1531 H   0  0  0  0  0  0  0  0  0  0  0  0
   10.3291   16.0198   30.8687 H   0  0  0  0  0  0  0  0  0  0  0  0
    8.1048   15.1267   30.1695 H   0  0  0  0  0  0  0  0  0  0  0  0
  1  2  2  0
  2  3  1  0
  2  4  1  0
  4  5  2  0
  5  6  1  0
  6  7  2  0
  7  8  1  0
  8  9  1  0
  9 10  2  0
 10 11  1  0
 11 12  1  0
 12 13  1  0
 13 14  2  0
 14 15  1  0
 15 16  2  0
 16 17  1  0
 17 18  1  0
 17 19  2  0
 10 20  1  0
 20 21  1  0
 21 22  2  0
 22 23  1  0
 23 24  2  0
 24 25  1  0
 24 26  1  0
 26 27  2  0
 20 28  2  0
  7 29  1  0
 29 30  2  0
 30  4  1  0
 28  8  1  0
 19 13  1  0
 27 21  1  0
  5 31  1  0
  6 32  1  0
  9 33  1  0
 11 34  1  0
 11 35  1  0
 12 36  1  0
 14 37  1  0
 15 38  1  0
 16 39  1  0
 19 40  1  0
 22 41  1  0
 23 42  1  0
 26 43  1  0
 27 44  1  0
 29 45  1  0
 30 46  1  0
M  CHG  1   3  -1
M  END
>  <meeko>  (12) 
{"is_sidechain": [false], "free_energy": -6.549, "intermolecular_energy": -9.031, "internal_energy": -1.139}

> <PREPARED_BY>
siam chowdhury
Computational and Medicinal Chemistry
[Dr. Alam's Research Team] www.alamresearch.org
Arkansas State University

$$$$
5sa23_out
     RDKit          3D

 46 49  0  0  0  0  0  0  0  0999 V2000
    5.5340   13.8370   32.1860 O   0  0  0  0  0  0  0  0  0  0  0  0
    6.4410   14.2450   31.4770 C   0  0  0  0  0  0  0  0  0  0  0  0
    6.3700   14.2460   30.1280 O   0  0  0  0  0  0  0  0  0  0  0  0
    7.7260   14.7510   32.0230 C   0  0  0  0  0  0  0  0  0  0  0  0
    8.6310   15.3520   31.1390 C   0  0  0  0  0  0  0  0  0  0  0  0
    9.8670   15.8230   31.6030 C   0  0  0  0  0  0  0  0  0  0  0  0
   10.2150   15.6840   32.9550 C   0  0  0  0  0  0  0  0  0  0  0  0
   11.4790   16.1630   33.4140 N   0  0  0  0  0  0  0  0  0  0  0  0
   12.3460   16.9970   32.7530 C   0  0  0  0  0  0  0  0  0  0  0  0
   13.4530   17.1700   33.5600 C   0  0  0  0  0  0  0  0  0  0  0  0
   14.6490   18.0180   33.2500 C   0  0  0  0  0  0  0  0  0  0  0  0
   14.7030   19.2680   34.0120 N   0  0  0  0  0  0  0  0  0  0  0  0
   14.1600   20.4320   33.4550 C   0  0  0  0  0  0  0  0  0  0  0  0
   14.0250   21.5710   34.2660 C   0  0  0  0  0  0  0  0  0  0  0  0
   13.5140   22.7720   33.7600 C   0  0  0  0  0  0  0  0  0  0  0  0
   13.1600   22.8600   32.4190 C   0  0  0  0  0  0  0  0  0  0  0  0
   13.3230   21.7480   31.6030 C   0  0  0  0  0  0  0  0  0  0  0  0
   12.9990   21.8350   30.3050 F   0  0  0  0  0  0  0  0  0  0  0  0
   13.8230   20.5470   32.1030 C   0  0  0  0  0  0  0  0  0  0  0  0
   13.1910   16.3580   34.7070 C   0  0  0  0  0  0  0  0  0  0  0  0
   14.0560   16.0860   35.8670 C   0  0  0  0  0  0  0  0  0  0  0  0
   13.8620   16.7490   37.0890 C   0  0  0  0  0  0  0  0  0  0  0  0
   14.6710   16.4900   38.1970 C   0  0  0  0  0  0  0  0  0  0  0  0
   15.7110   15.5820   38.0780 C   0  0  0  0  0  0  0  0  0  0  0  0
   16.4990   15.3440   39.1350 F   0  0  0  0  0  0  0  0  0  0  0  0
   15.9490   14.9300   36.8750 C   0  0  0  0  0  0  0  0  0  0  0  0
   15.1240   15.1780   35.7720 C   0  0  0  0  0  0  0  0  0  0  0  0
   11.9710   15.8030   34.6230 N   0  0  0  0  0  0  0  0  0  0  0  0
    9.3110   15.0680   33.8350 C   0  0  0  0  0  0  0  0  0  0  0  0
    8.0750   14.5990   33.3690 C   0  0  0  0  0  0  0  0  0  0  0  0
    8.3705   15.4549   30.0753 H   0  0  0  0  0  0  0  0  0  0  0  0
   10.5672   16.3037   30.9040 H   0  0  0  0  0  0  0  0  0  0  0  0
   12.1878   17.4457   31.7612 H   0  0  0  0  0  0  0  0  0  0  0  0
   15.5545   17.4355   33.4752 H   0  0  0  0  0  0  0  0  0  0  0  0
   14.5784   18.2941   32.1876 H   0  0  0  0  0  0  0  0  0  0  0  0
   15.1160   19.2900   34.9050 H   0  0  0  0  0  0  0  0  0  0  0  0
   14.3276   21.5180   35.3222 H   0  0  0  0  0  0  0  0  0  0  0  0
   13.3931   23.6427   34.4212 H   0  0  0  0  0  0  0  0  0  0  0  0
   12.7562   23.7976   32.0094 H   0  0  0  0  0  0  0  0  0  0  0  0
   13.9530   19.6859   31.4310 H   0  0  0  0  0  0  0  0  0  0  0  0
   13.0536   17.4900   37.1756 H   0  0  0  0  0  0  0  0  0  0  0  0
   14.4850   17.0008   39.1533 H   0  0  0  0  0  0  0  0  0  0  0  0
   16.7846   14.2198   36.7893 H   0  0  0  0  0  0  0  0  0  0  0  0
   15.3135   14.6572   34.8218 H   0  0  0  0  0  0  0  0  0  0  0  0
    9.5743   14.9527   34.8968 H   0  0  0  0  0  0  0  0  0  0  0  0
    7.3770   14.1097   34.0643 H   0  0  0  0  0  0  0  0  0  0  0  0
  1  2  2  0
  2  3  1  0
  2  4  1  0
  4  5  2  0
  5  6  1  0
  6  7  2  0
  7  8  1  0
  8  9  1  0
  9 10  2  0
 10 11  1  0
 11 12  1  0
 12 13  1  0
 13 14  2  0
 14 15  1  0
 15 16  2  0
 16 17  1  0
 17 18  1  0
 17 19  2  0
 10 20  1  0
 20 21  1  0
 21 22  2  0
 22 23  1  0
 23 24  2  0
 24 25  1  0
 24 26  1  0
 26 27  2  0
 20 28  2  0
  7 29  1  0
 29 30  2  0
 30  4  1  0
 28  8  1  0
 19 13  1  0
 27 21  1  0
  5 31  1  0
  6 32  1  0
  9 33  1  0
 11 34  1  0
 11 35  1  0
 12 36  1  0
 14 37  1  0
 15 38  1  0
 16 39  1  0
 19 40  1  0
 22 41  1  0
 23 42  1  0
 26 43  1  0
 27 44  1  0
 29 45  1  0
 30 46  1  0
M  CHG  1   3  -1
M  END
>  <meeko>  (13) 
{"is_sidechain": [false], "free_energy": -6.51, "intermolecular_energy": -8.955, "internal_energy": -1.161}

> <PREPARED_BY>
siam chowdhury
Computational and Medicinal Chemistry
[Dr. Alam's Research Team] www.alamresearch.org
Arkansas State University

$$$$
5sa23_out
     RDKit          3D

 46 49  0  0  0  0  0  0  0  0999 V2000
    1.3320   15.6160   28.7280 O   0  0  0  0  0  0  0  0  0  0  0  0
    1.9270   16.0810   29.6880 C   0  0  0  0  0  0  0  0  0  0  0  0
    1.4560   15.9950   30.9510 O   0  0  0  0  0  0  0  0  0  0  0  0
    3.2120   16.8150   29.5620 C   0  0  0  0  0  0  0  0  0  0  0  0
    3.1720   18.1530   29.1490 C   0  0  0  0  0  0  0  0  0  0  0  0
    4.3590   18.8810   28.9910 C   0  0  0  0  0  0  0  0  0  0  0  0
    5.6000   18.2720   29.2340 C   0  0  0  0  0  0  0  0  0  0  0  0
    6.8020   19.0230   29.0650 N   0  0  0  0  0  0  0  0  0  0  0  0
    7.7840   19.2500   29.9960 C   0  0  0  0  0  0  0  0  0  0  0  0
    8.7420   20.0480   29.4050 C   0  0  0  0  0  0  0  0  0  0  0  0
   10.0070   20.5340   30.0460 C   0  0  0  0  0  0  0  0  0  0  0  0
   10.7440   19.4930   30.7670 N   0  0  0  0  0  0  0  0  0  0  0  0
   11.9310   19.8290   31.4280 C   0  0  0  0  0  0  0  0  0  0  0  0
   12.3060   21.1810   31.5000 C   0  0  0  0  0  0  0  0  0  0  0  0
   13.4670   21.5830   32.1700 C   0  0  0  0  0  0  0  0  0  0  0  0
   14.2560   20.6350   32.8100 C   0  0  0  0  0  0  0  0  0  0  0  0
   13.8730   19.3000   32.7740 C   0  0  0  0  0  0  0  0  0  0  0  0
   14.6220   18.3860   33.4050 F   0  0  0  0  0  0  0  0  0  0  0  0
   12.7220   18.8940   32.1000 C   0  0  0  0  0  0  0  0  0  0  0  0
    8.2390   20.3000   28.0910 C   0  0  0  0  0  0  0  0  0  0  0  0
    8.7980   21.1570   27.0330 C   0  0  0  0  0  0  0  0  0  0  0  0
    8.5200   20.9130   25.6780 C   0  0  0  0  0  0  0  0  0  0  0  0
    9.0370   21.7270   24.6680 C   0  0  0  0  0  0  0  0  0  0  0  0
    9.8720   22.7790   25.0080 C   0  0  0  0  0  0  0  0  0  0  0  0
   10.3830   23.5520   24.0410 F   0  0  0  0  0  0  0  0  0  0  0  0
   10.1910   23.0310   26.3370 C   0  0  0  0  0  0  0  0  0  0  0  0
    9.6550   22.2240   27.3480 C   0  0  0  0  0  0  0  0  0  0  0  0
    7.0940   19.6270   27.8880 N   0  0  0  0  0  0  0  0  0  0  0  0
    5.6360   16.9260   29.6340 C   0  0  0  0  0  0  0  0  0  0  0  0
    4.4470   16.2010   29.7920 C   0  0  0  0  0  0  0  0  0  0  0  0
    2.2038   18.6347   28.9477 H   0  0  0  0  0  0  0  0  0  0  0  0
    4.3180   19.9339   28.6753 H   0  0  0  0  0  0  0  0  0  0  0  0
    7.8039   18.8656   31.0265 H   0  0  0  0  0  0  0  0  0  0  0  0
   10.6604   20.9396   29.2595 H   0  0  0  0  0  0  0  0  0  0  0  0
    9.7184   21.2933   30.7877 H   0  0  0  0  0  0  0  0  0  0  0  0
   10.4090   18.5680   30.7850 H   0  0  0  0  0  0  0  0  0  0  0  0
   11.6727   21.9408   31.0188 H   0  0  0  0  0  0  0  0  0  0  0  0
   13.7537   22.6448   32.1899 H   0  0  0  0  0  0  0  0  0  0  0  0
   15.1721   20.9376   33.3384 H   0  0  0  0  0  0  0  0  0  0  0  0
   12.4353   17.8320   32.0974 H   0  0  0  0  0  0  0  0  0  0  0  0
    7.8800   20.0607   25.4060 H   0  0  0  0  0  0  0  0  0  0  0  0
    8.7843   21.5352   23.6147 H   0  0  0  0  0  0  0  0  0  0  0  0
   10.8633   23.8628   26.5942 H   0  0  0  0  0  0  0  0  0  0  0  0
    9.9076   22.4278   28.3990 H   0  0  0  0  0  0  0  0  0  0  0  0
    6.6033   16.4380   29.8244 H   0  0  0  0  0  0  0  0  0  0  0  0
    4.4855   15.1451   30.0981 H   0  0  0  0  0  0  0  0  0  0  0  0
  1  2  2  0
  2  3  1  0
  2  4  1  0
  4  5  2  0
  5  6  1  0
  6  7  2  0
  7  8  1  0
  8  9  1  0
  9 10  2  0
 10 11  1  0
 11 12  1  0
 12 13  1  0
 13 14  2  0
 14 15  1  0
 15 16  2  0
 16 17  1  0
 17 18  1  0
 17 19  2  0
 10 20  1  0
 20 21  1  0
 21 22  2  0
 22 23  1  0
 23 24  2  0
 24 25  1  0
 24 26  1  0
 26 27  2  0
 20 28  2  0
  7 29  1  0
 29 30  2  0
 30  4  1  0
 28  8  1  0
 19 13  1  0
 27 21  1  0
  5 31  1  0
  6 32  1  0
  9 33  1  0
 11 34  1  0
 11 35  1  0
 12 36  1  0
 14 37  1  0
 15 38  1  0
 16 39  1  0
 19 40  1  0
 22 41  1  0
 23 42  1  0
 26 43  1  0
 27 44  1  0
 29 45  1  0
 30 46  1  0
M  CHG  1   3  -1
M  END
>  <meeko>  (14) 
{"is_sidechain": [false], "free_energy": -6.211, "intermolecular_energy": -9.116, "internal_energy": -0.597}

> <PREPARED_BY>
siam chowdhury
Computational and Medicinal Chemistry
[Dr. Alam's Research Team] www.alamresearch.org
Arkansas State University

$$$$
5sa23_out
     RDKit          3D

 46 49  0  0  0  0  0  0  0  0999 V2000
   15.1300   18.3030   33.1410 O   0  0  0  0  0  0  0  0  0  0  0  0
   14.1910   19.0300   33.4240 C   0  0  0  0  0  0  0  0  0  0  0  0
   14.0610   19.6200   34.6320 O   0  0  0  0  0  0  0  0  0  0  0  0
   13.0790   19.3140   32.4820 C   0  0  0  0  0  0  0  0  0  0  0  0
   12.9020   20.6320   32.0430 C   0  0  0  0  0  0  0  0  0  0  0  0
   11.8530   20.9540   31.1730 C   0  0  0  0  0  0  0  0  0  0  0  0
   10.9600   19.9600   30.7420 C   0  0  0  0  0  0  0  0  0  0  0  0
    9.8920   20.3030   29.8590 N   0  0  0  0  0  0  0  0  0  0  0  0
    9.9610   20.5080   28.5040 C   0  0  0  0  0  0  0  0  0  0  0  0
    8.6950   20.8440   28.0680 C   0  0  0  0  0  0  0  0  0  0  0  0
    8.2950   21.1390   26.6550 C   0  0  0  0  0  0  0  0  0  0  0  0
    7.4240   22.3090   26.5170 N   0  0  0  0  0  0  0  0  0  0  0  0
    6.0940   22.1290   26.1230 C   0  0  0  0  0  0  0  0  0  0  0  0
    5.1550   23.1270   26.4320 C   0  0  0  0  0  0  0  0  0  0  0  0
    3.8150   23.0160   26.0420 C   0  0  0  0  0  0  0  0  0  0  0  0
    3.4010   21.9150   25.3030 C   0  0  0  0  0  0  0  0  0  0  0  0
    4.3310   20.9410   24.9630 C   0  0  0  0  0  0  0  0  0  0  0  0
    3.9390   19.8860   24.2350 F   0  0  0  0  0  0  0  0  0  0  0  0
    5.6650   21.0410   25.3570 C   0  0  0  0  0  0  0  0  0  0  0  0
    7.9000   20.8590   29.2560 C   0  0  0  0  0  0  0  0  0  0  0  0
    6.4840   21.2310   29.4190 C   0  0  0  0  0  0  0  0  0  0  0  0
    6.1170   22.4610   29.9870 C   0  0  0  0  0  0  0  0  0  0  0  0
    4.7770   22.8260   30.1360 C   0  0  0  0  0  0  0  0  0  0  0  0
    3.7870   21.9380   29.7470 C   0  0  0  0  0  0  0  0  0  0  0  0
    2.5010   22.2790   29.9040 F   0  0  0  0  0  0  0  0  0  0  0  0
    4.1160   20.7000   29.2090 C   0  0  0  0  0  0  0  0  0  0  0  0
    5.4600   20.3470   29.0430 C   0  0  0  0  0  0  0  0  0  0  0  0
    8.6300   20.4760   30.3170 N   0  0  0  0  0  0  0  0  0  0  0  0
   11.1320   18.6430   31.1950 C   0  0  0  0  0  0  0  0  0  0  0  0
   12.1840   18.3230   32.0650 C   0  0  0  0  0  0  0  0  0  0  0  0
   13.5910   21.4189   32.3836 H   0  0  0  0  0  0  0  0  0  0  0  0
   11.7281   21.9903   30.8258 H   0  0  0  0  0  0  0  0  0  0  0  0
   10.8617   20.4205   27.8786 H   0  0  0  0  0  0  0  0  0  0  0  0
    9.2074   21.3149   26.0662 H   0  0  0  0  0  0  0  0  0  0  0  0
    7.7226   20.2706   26.2970 H   0  0  0  0  0  0  0  0  0  0  0  0
    7.7710   23.2120   26.6990 H   0  0  0  0  0  0  0  0  0  0  0  0
    5.4798   24.0157   26.9930 H   0  0  0  0  0  0  0  0  0  0  0  0
    3.0927   23.7977   26.3197 H   0  0  0  0  0  0  0  0  0  0  0  0
    2.3508   21.8159   24.9913 H   0  0  0  0  0  0  0  0  0  0  0  0
    6.3827   20.2606   25.0639 H   0  0  0  0  0  0  0  0  0  0  0  0
    6.9029   23.1536   30.3226 H   0  0  0  0  0  0  0  0  0  0  0  0
    4.5108   23.8067   30.5571 H   0  0  0  0  0  0  0  0  0  0  0  0
    3.3216   19.9986   28.9141 H   0  0  0  0  0  0  0  0  0  0  0  0
    5.7167   19.3673   28.6137 H   0  0  0  0  0  0  0  0  0  0  0  0
   10.4370   17.8566   30.8654 H   0  0  0  0  0  0  0  0  0  0  0  0
   12.3060   17.2893   32.4208 H   0  0  0  0  0  0  0  0  0  0  0  0
  1  2  2  0
  2  3  1  0
  2  4  1  0
  4  5  2  0
  5  6  1  0
  6  7  2  0
  7  8  1  0
  8  9  1  0
  9 10  2  0
 10 11  1  0
 11 12  1  0
 12 13  1  0
 13 14  2  0
 14 15  1  0
 15 16  2  0
 16 17  1  0
 17 18  1  0
 17 19  2  0
 10 20  1  0
 20 21  1  0
 21 22  2  0
 22 23  1  0
 23 24  2  0
 24 25  1  0
 24 26  1  0
 26 27  2  0
 20 28  2  0
  7 29  1  0
 29 30  2  0
 30  4  1  0
 28  8  1  0
 19 13  1  0
 27 21  1  0
  5 31  1  0
  6 32  1  0
  9 33  1  0
 11 34  1  0
 11 35  1  0
 12 36  1  0
 14 37  1  0
 15 38  1  0
 16 39  1  0
 19 40  1  0
 22 41  1  0
 23 42  1  0
 26 43  1  0
 27 44  1  0
 29 45  1  0
 30 46  1  0
M  CHG  1   3  -1
M  END
>  <meeko>  (15) 
{"is_sidechain": [false], "free_energy": -6.108, "intermolecular_energy": -7.751, "internal_energy": -1.823}

> <PREPARED_BY>
siam chowdhury
Computational and Medicinal Chemistry
[Dr. Alam's Research Team] www.alamresearch.org
Arkansas State University

$$$$
5sa23_out
     RDKit          3D

 46 49  0  0  0  0  0  0  0  0999 V2000
    5.3430   19.8660   26.5800 O   0  0  0  0  0  0  0  0  0  0  0  0
    5.7490   20.7030   27.3710 C   0  0  0  0  0  0  0  0  0  0  0  0
    5.1700   21.9150   27.5150 O   0  0  0  0  0  0  0  0  0  0  0  0
    6.9390   20.4870   28.2330 C   0  0  0  0  0  0  0  0  0  0  0  0
    8.2030   20.7660   27.6980 C   0  0  0  0  0  0  0  0  0  0  0  0
    9.3580   20.5550   28.4630 C   0  0  0  0  0  0  0  0  0  0  0  0
    9.2600   20.0500   29.7690 C   0  0  0  0  0  0  0  0  0  0  0  0
   10.4440   19.8350   30.5360 N   0  0  0  0  0  0  0  0  0  0  0  0
   10.8370   18.6790   31.1600 C   0  0  0  0  0  0  0  0  0  0  0  0
   12.0290   18.9370   31.8050 C   0  0  0  0  0  0  0  0  0  0  0  0
   12.8350   17.9570   32.6020 C   0  0  0  0  0  0  0  0  0  0  0  0
   12.0720   16.7900   33.0520 N   0  0  0  0  0  0  0  0  0  0  0  0
   12.4390   16.1500   34.2410 C   0  0  0  0  0  0  0  0  0  0  0  0
   13.7110   16.4050   34.7820 C   0  0  0  0  0  0  0  0  0  0  0  0
   14.1260   15.8170   35.9830 C   0  0  0  0  0  0  0  0  0  0  0  0
   13.2560   14.9870   36.6800 C   0  0  0  0  0  0  0  0  0  0  0  0
   11.9850   14.7580   36.1690 C   0  0  0  0  0  0  0  0  0  0  0  0
   11.1380   13.9730   36.8490 F   0  0  0  0  0  0  0  0  0  0  0  0
   11.5700   15.3340   34.9700 C   0  0  0  0  0  0  0  0  0  0  0  0
   12.2820   20.3210   31.5490 C   0  0  0  0  0  0  0  0  0  0  0  0
   13.3720   21.1730   32.0530 C   0  0  0  0  0  0  0  0  0  0  0  0
   14.7110   20.9110   31.7210 C   0  0  0  0  0  0  0  0  0  0  0  0
   15.7500   21.7190   32.1870 C   0  0  0  0  0  0  0  0  0  0  0  0
   15.4570   22.7840   33.0230 C   0  0  0  0  0  0  0  0  0  0  0  0
   16.4540   23.5510   33.4830 F   0  0  0  0  0  0  0  0  0  0  0  0
   14.1460   23.0530   33.3940 C   0  0  0  0  0  0  0  0  0  0  0  0
   13.1050   22.2530   32.9100 C   0  0  0  0  0  0  0  0  0  0  0  0
   11.3420   20.8290   30.7360 N   0  0  0  0  0  0  0  0  0  0  0  0
    7.9910   19.7590   30.2960 C   0  0  0  0  0  0  0  0  0  0  0  0
    6.8370   19.9720   29.5290 C   0  0  0  0  0  0  0  0  0  0  0  0
    8.2895   21.1528   26.6719 H   0  0  0  0  0  0  0  0  0  0  0  0
   10.3459   20.7862   28.0381 H   0  0  0  0  0  0  0  0  0  0  0  0
   10.2992   17.7195   31.1484 H   0  0  0  0  0  0  0  0  0  0  0  0
   13.6697   17.6057   31.9776 H   0  0  0  0  0  0  0  0  0  0  0  0
   13.1768   18.4835   33.5053 H   0  0  0  0  0  0  0  0  0  0  0  0
   11.3110   16.4580   32.5230 H   0  0  0  0  0  0  0  0  0  0  0  0
   14.3958   17.0817   34.2499 H   0  0  0  0  0  0  0  0  0  0  0  0
   15.1360   16.0111   36.3731 H   0  0  0  0  0  0  0  0  0  0  0  0
   13.5699   14.5176   37.6240 H   0  0  0  0  0  0  0  0  0  0  0  0
   10.5531   15.1454   34.5955 H   0  0  0  0  0  0  0  0  0  0  0  0
   14.9468   20.0494   31.0791 H   0  0  0  0  0  0  0  0  0  0  0  0
   16.7898   21.5122   31.8935 H   0  0  0  0  0  0  0  0  0  0  0  0
   13.9262   23.8943   34.0678 H   0  0  0  0  0  0  0  0  0  0  0  0
   12.0678   22.4721   33.2035 H   0  0  0  0  0  0  0  0  0  0  0  0
    7.9020   19.3612   31.3177 H   0  0  0  0  0  0  0  0  0  0  0  0
    5.8483   19.7333   29.9480 H   0  0  0  0  0  0  0  0  0  0  0  0
  1  2  2  0
  2  3  1  0
  2  4  1  0
  4  5  2  0
  5  6  1  0
  6  7  2  0
  7  8  1  0
  8  9  1  0
  9 10  2  0
 10 11  1  0
 11 12  1  0
 12 13  1  0
 13 14  2  0
 14 15  1  0
 15 16  2  0
 16 17  1  0
 17 18  1  0
 17 19  2  0
 10 20  1  0
 20 21  1  0
 21 22  2  0
 22 23  1  0
 23 24  2  0
 24 25  1  0
 24 26  1  0
 26 27  2  0
 20 28  2  0
  7 29  1  0
 29 30  2  0
 30  4  1  0
 28  8  1  0
 19 13  1  0
 27 21  1  0
  5 31  1  0
  6 32  1  0
  9 33  1  0
 11 34  1  0
 11 35  1  0
 12 36  1  0
 14 37  1  0
 15 38  1  0
 16 39  1  0
 19 40  1  0
 22 41  1  0
 23 42  1  0
 26 43  1  0
 27 44  1  0
 29 45  1  0
 30 46  1  0
M  CHG  1   3  -1
M  END
>  <meeko>  (16) 
{"is_sidechain": [false], "free_energy": -6.104, "intermolecular_energy": -8.668, "internal_energy": -0.9}

> <PREPARED_BY>
siam chowdhury
Computational and Medicinal Chemistry
[Dr. Alam's Research Team] www.alamresearch.org
Arkansas State University

$$$$
5sa23_out
     RDKit          3D

 46 49  0  0  0  0  0  0  0  0999 V2000
    1.7330   15.6920   28.6090 O   0  0  0  0  0  0  0  0  0  0  0  0
    2.2650   16.2130   29.5780 C   0  0  0  0  0  0  0  0  0  0  0  0
    1.7550   16.1260   30.8250 O   0  0  0  0  0  0  0  0  0  0  0  0
    3.5060   17.0210   29.4780 C   0  0  0  0  0  0  0  0  0  0  0  0
    4.7340   16.3770   29.6740 C   0  0  0  0  0  0  0  0  0  0  0  0
    5.9320   17.1010   29.6140 C   0  0  0  0  0  0  0  0  0  0  0  0
    5.9120   18.4830   29.3700 C   0  0  0  0  0  0  0  0  0  0  0  0
    7.1380   19.2110   29.3160 N   0  0  0  0  0  0  0  0  0  0  0  0
    7.5180   20.1420   28.3820 C   0  0  0  0  0  0  0  0  0  0  0  0
    8.7910   20.5640   28.7070 C   0  0  0  0  0  0  0  0  0  0  0  0
    9.5970   21.5910   27.9720 C   0  0  0  0  0  0  0  0  0  0  0  0
    8.7890   22.6260   27.3230 N   0  0  0  0  0  0  0  0  0  0  0  0
    8.1840   22.3480   26.0920 C   0  0  0  0  0  0  0  0  0  0  0  0
    8.9080   21.6250   25.1300 C   0  0  0  0  0  0  0  0  0  0  0  0
    8.3470   21.2930   23.8900 C   0  0  0  0  0  0  0  0  0  0  0  0
    7.0350   21.6540   23.6090 C   0  0  0  0  0  0  0  0  0  0  0  0
    6.3020   22.3400   24.5690 C   0  0  0  0  0  0  0  0  0  0  0  0
    5.0300   22.6730   24.3070 F   0  0  0  0  0  0  0  0  0  0  0  0
    6.8580   22.6800   25.8010 C   0  0  0  0  0  0  0  0  0  0  0  0
    9.1400   19.7940   29.8610 C   0  0  0  0  0  0  0  0  0  0  0  0
   10.4120   19.7590   30.6010 C   0  0  0  0  0  0  0  0  0  0  0  0
   11.1930   20.9150   30.7590 C   0  0  0  0  0  0  0  0  0  0  0  0
   12.3950   20.8920   31.4690 C   0  0  0  0  0  0  0  0  0  0  0  0
   12.8450   19.6950   32.0000 C   0  0  0  0  0  0  0  0  0  0  0  0
   14.0070   19.6670   32.6670 F   0  0  0  0  0  0  0  0  0  0  0  0
   12.1110   18.5260   31.8360 C   0  0  0  0  0  0  0  0  0  0  0  0
   10.8970   18.5570   31.1410 C   0  0  0  0  0  0  0  0  0  0  0  0
    8.1070   19.0250   30.2430 N   0  0  0  0  0  0  0  0  0  0  0  0
    4.6780   19.1280   29.1880 C   0  0  0  0  0  0  0  0  0  0  0  0
    3.4810   18.4010   29.2480 C   0  0  0  0  0  0  0  0  0  0  0  0
    4.7582   15.2960   29.8763 H   0  0  0  0  0  0  0  0  0  0  0  0
    6.8922   16.5842   29.7587 H   0  0  0  0  0  0  0  0  0  0  0  0
    6.9167   20.4890   27.5288 H   0  0  0  0  0  0  0  0  0  0  0  0
   10.2735   22.0787   28.6893 H   0  0  0  0  0  0  0  0  0  0  0  0
   10.1382   21.0613   27.1742 H   0  0  0  0  0  0  0  0  0  0  0  0
    8.6740   23.5070   27.7470 H   0  0  0  0  0  0  0  0  0  0  0  0
    9.9384   21.3125   25.3551 H   0  0  0  0  0  0  0  0  0  0  0  0
    8.9425   20.7489   23.1421 H   0  0  0  0  0  0  0  0  0  0  0  0
    6.5827   21.3999   22.6390 H   0  0  0  0  0  0  0  0  0  0  0  0
    6.2503   23.2121   26.5477 H   0  0  0  0  0  0  0  0  0  0  0  0
   10.8501   21.8604   30.3133 H   0  0  0  0  0  0  0  0  0  0  0  0
   12.9781   21.8147   31.6050 H   0  0  0  0  0  0  0  0  0  0  0  0
   12.4838   17.5783   32.2518 H   0  0  0  0  0  0  0  0  0  0  0  0
   10.3169   17.6307   31.0164 H   0  0  0  0  0  0  0  0  0  0  0  0
    4.6505   20.2110   28.9971 H   0  0  0  0  0  0  0  0  0  0  0  0
    2.5189   18.9171   29.1138 H   0  0  0  0  0  0  0  0  0  0  0  0
  1  2  2  0
  2  3  1  0
  2  4  1  0
  4  5  2  0
  5  6  1  0
  6  7  2  0
  7  8  1  0
  8  9  1  0
  9 10  2  0
 10 11  1  0
 11 12  1  0
 12 13  1  0
 13 14  2  0
 14 15  1  0
 15 16  2  0
 16 17  1  0
 17 18  1  0
 17 19  2  0
 10 20  1  0
 20 21  1  0
 21 22  2  0
 22 23  1  0
 23 24  2  0
 24 25  1  0
 24 26  1  0
 26 27  2  0
 20 28  2  0
  7 29  1  0
 29 30  2  0
 30  4  1  0
 28  8  1  0
 19 13  1  0
 27 21  1  0
  5 31  1  0
  6 32  1  0
  9 33  1  0
 11 34  1  0
 11 35  1  0
 12 36  1  0
 14 37  1  0
 15 38  1  0
 16 39  1  0
 19 40  1  0
 22 41  1  0
 23 42  1  0
 26 43  1  0
 27 44  1  0
 29 45  1  0
 30 46  1  0
M  CHG  1   3  -1
M  END
>  <meeko>  (17) 
{"is_sidechain": [false], "free_energy": -6.018, "intermolecular_energy": -8.795, "internal_energy": -0.657}

> <PREPARED_BY>
siam chowdhury
Computational and Medicinal Chemistry
[Dr. Alam's Research Team] www.alamresearch.org
Arkansas State University

$$$$
5sa23_out
     RDKit          3D

 46 49  0  0  0  0  0  0  0  0999 V2000
    5.5670   21.2650   27.5060 O   0  0  0  0  0  0  0  0  0  0  0  0
    6.4460   20.4270   27.3720 C   0  0  0  0  0  0  0  0  0  0  0  0
    6.4380   19.5140   26.3770 O   0  0  0  0  0  0  0  0  0  0  0  0
    7.5940   20.3050   28.3060 C   0  0  0  0  0  0  0  0  0  0  0  0
    8.8100   20.8940   27.9410 C   0  0  0  0  0  0  0  0  0  0  0  0
    9.9290   20.7860   28.7780 C   0  0  0  0  0  0  0  0  0  0  0  0
    9.8440   20.0740   29.9850 C   0  0  0  0  0  0  0  0  0  0  0  0
   10.9920   19.9670   30.8260 N   0  0  0  0  0  0  0  0  0  0  0  0
   11.9850   20.8960   31.0070 C   0  0  0  0  0  0  0  0  0  0  0  0
   12.9040   20.3580   31.8840 C   0  0  0  0  0  0  0  0  0  0  0  0
   14.1480   21.0280   32.3850 C   0  0  0  0  0  0  0  0  0  0  0  0
   13.8930   22.2320   33.1800 N   0  0  0  0  0  0  0  0  0  0  0  0
   13.5080   22.0980   34.5190 C   0  0  0  0  0  0  0  0  0  0  0  0
   14.2010   21.1870   35.3350 C   0  0  0  0  0  0  0  0  0  0  0  0
   13.8800   21.0270   36.6870 C   0  0  0  0  0  0  0  0  0  0  0  0
   12.8770   21.8050   37.2550 C   0  0  0  0  0  0  0  0  0  0  0  0
   12.2110   22.7320   36.4630 C   0  0  0  0  0  0  0  0  0  0  0  0
   11.2570   23.4960   37.0120 F   0  0  0  0  0  0  0  0  0  0  0  0
   12.5210   22.8890   35.1130 C   0  0  0  0  0  0  0  0  0  0  0  0
   12.4050   19.0490   32.1690 C   0  0  0  0  0  0  0  0  0  0  0  0
   13.0100   17.9820   32.9830 C   0  0  0  0  0  0  0  0  0  0  0  0
   12.2830   16.8320   33.3290 C   0  0  0  0  0  0  0  0  0  0  0  0
   12.8530   15.8110   34.0930 C   0  0  0  0  0  0  0  0  0  0  0  0
   14.1540   15.9510   34.5470 C   0  0  0  0  0  0  0  0  0  0  0  0
   14.6970   14.9800   35.2930 F   0  0  0  0  0  0  0  0  0  0  0  0
   14.8910   17.0900   34.2470 C   0  0  0  0  0  0  0  0  0  0  0  0
   14.3230   18.1020   33.4660 C   0  0  0  0  0  0  0  0  0  0  0  0
   11.2220   18.8550   31.5630 N   0  0  0  0  0  0  0  0  0  0  0  0
    8.6260   19.4730   30.3400 C   0  0  0  0  0  0  0  0  0  0  0  0
    7.5080   19.5840   29.5010 C   0  0  0  0  0  0  0  0  0  0  0  0
    8.8879   21.4447   26.9920 H   0  0  0  0  0  0  0  0  0  0  0  0
   10.8778   21.2611   28.4880 H   0  0  0  0  0  0  0  0  0  0  0  0
   12.0387   21.8896   30.5380 H   0  0  0  0  0  0  0  0  0  0  0  0
   14.7005   20.3107   33.0097 H   0  0  0  0  0  0  0  0  0  0  0  0
   14.7198   21.3441   31.5000 H   0  0  0  0  0  0  0  0  0  0  0  0
   13.9920   23.1250   32.7780 H   0  0  0  0  0  0  0  0  0  0  0  0
   15.0139   20.5865   34.9006 H   0  0  0  0  0  0  0  0  0  0  0  0
   14.4189   20.2885   37.2987 H   0  0  0  0  0  0  0  0  0  0  0  0
   12.6145   21.6880   38.3168 H   0  0  0  0  0  0  0  0  0  0  0  0
   11.9860   23.6393   34.5123 H   0  0  0  0  0  0  0  0  0  0  0  0
   11.2410   16.7327   32.9908 H   0  0  0  0  0  0  0  0  0  0  0  0
   12.2751   14.9059   34.3314 H   0  0  0  0  0  0  0  0  0  0  0  0
   15.9193   17.1958   34.6230 H   0  0  0  0  0  0  0  0  0  0  0  0
   14.9108   19.0008   33.2278 H   0  0  0  0  0  0  0  0  0  0  0  0
    8.5482   18.9113   31.2826 H   0  0  0  0  0  0  0  0  0  0  0  0
    6.5603   19.1024   29.7838 H   0  0  0  0  0  0  0  0  0  0  0  0
  1  2  2  0
  2  3  1  0
  2  4  1  0
  4  5  2  0
  5  6  1  0
  6  7  2  0
  7  8  1  0
  8  9  1  0
  9 10  2  0
 10 11  1  0
 11 12  1  0
 12 13  1  0
 13 14  2  0
 14 15  1  0
 15 16  2  0
 16 17  1  0
 17 18  1  0
 17 19  2  0
 10 20  1  0
 20 21  1  0
 21 22  2  0
 22 23  1  0
 23 24  2  0
 24 25  1  0
 24 26  1  0
 26 27  2  0
 20 28  2  0
  7 29  1  0
 29 30  2  0
 30  4  1  0
 28  8  1  0
 19 13  1  0
 27 21  1  0
  5 31  1  0
  6 32  1  0
  9 33  1  0
 11 34  1  0
 11 35  1  0
 12 36  1  0
 14 37  1  0
 15 38  1  0
 16 39  1  0
 19 40  1  0
 22 41  1  0
 23 42  1  0
 26 43  1  0
 27 44  1  0
 29 45  1  0
 30 46  1  0
M  CHG  1   3  -1
M  END
>  <meeko>  (18) 
{"is_sidechain": [false], "free_energy": -6.002, "intermolecular_energy": -8.407, "internal_energy": -1.023}

> <PREPARED_BY>
siam chowdhury
Computational and Medicinal Chemistry
[Dr. Alam's Research Team] www.alamresearch.org
Arkansas State University

$$$$
5sa23_out
     RDKit          3D

 46 49  0  0  0  0  0  0  0  0999 V2000
    1.5380   15.6560   28.7290 O   0  0  0  0  0  0  0  0  0  0  0  0
    2.0940   16.1370   29.7040 C   0  0  0  0  0  0  0  0  0  0  0  0
    1.5680   16.0820   30.9470 O   0  0  0  0  0  0  0  0  0  0  0  0
    3.3890   16.8590   29.6190 C   0  0  0  0  0  0  0  0  0  0  0  0
    3.3700   18.2130   29.2610 C   0  0  0  0  0  0  0  0  0  0  0  0
    4.5670   18.9320   29.1440 C   0  0  0  0  0  0  0  0  0  0  0  0
    5.7980   18.2980   29.3710 C   0  0  0  0  0  0  0  0  0  0  0  0
    7.0110   19.0390   29.2430 N   0  0  0  0  0  0  0  0  0  0  0  0
    7.3700   19.8850   28.2240 C   0  0  0  0  0  0  0  0  0  0  0  0
    8.6350   20.3590   28.5020 C   0  0  0  0  0  0  0  0  0  0  0  0
    9.4200   21.3270   27.6700 C   0  0  0  0  0  0  0  0  0  0  0  0
    8.9250   22.7040   27.7370 N   0  0  0  0  0  0  0  0  0  0  0  0
    7.5520   22.9440   27.6100 C   0  0  0  0  0  0  0  0  0  0  0  0
    6.9700   22.8870   26.3330 C   0  0  0  0  0  0  0  0  0  0  0  0
    5.5980   23.0910   26.1440 C   0  0  0  0  0  0  0  0  0  0  0  0
    4.7790   23.3230   27.2430 C   0  0  0  0  0  0  0  0  0  0  0  0
    5.3420   23.3470   28.5130 C   0  0  0  0  0  0  0  0  0  0  0  0
    4.5510   23.5520   29.5750 F   0  0  0  0  0  0  0  0  0  0  0  0
    6.7090   23.1530   28.7050 C   0  0  0  0  0  0  0  0  0  0  0  0
    9.0030   19.7080   29.7210 C   0  0  0  0  0  0  0  0  0  0  0  0
   10.2770   19.7650   30.4550 C   0  0  0  0  0  0  0  0  0  0  0  0
   10.8270   18.6160   31.0460 C   0  0  0  0  0  0  0  0  0  0  0  0
   12.0410   18.6600   31.7360 C   0  0  0  0  0  0  0  0  0  0  0  0
   12.7000   19.8700   31.8690 C   0  0  0  0  0  0  0  0  0  0  0  0
   13.8560   19.9180   32.5450 F   0  0  0  0  0  0  0  0  0  0  0  0
   12.1690   21.0320   31.3220 C   0  0  0  0  0  0  0  0  0  0  0  0
   10.9620   20.9810   30.6150 C   0  0  0  0  0  0  0  0  0  0  0  0
    7.9860   18.9590   30.1790 N   0  0  0  0  0  0  0  0  0  0  0  0
    5.8140   16.9360   29.7150 C   0  0  0  0  0  0  0  0  0  0  0  0
    4.6140   16.2200   29.8330 C   0  0  0  0  0  0  0  0  0  0  0  0
    2.4098   18.7148   29.0706 H   0  0  0  0  0  0  0  0  0  0  0  0
    4.5415   19.9978   28.8731 H   0  0  0  0  0  0  0  0  0  0  0  0
    6.7596   20.1391   27.3449 H   0  0  0  0  0  0  0  0  0  0  0  0
   10.4633   21.3166   28.0183 H   0  0  0  0  0  0  0  0  0  0  0  0
    9.3211   21.0025   26.6236 H   0  0  0  0  0  0  0  0  0  0  0  0
    9.5510   23.4530   27.8690 H   0  0  0  0  0  0  0  0  0  0  0  0
    7.6071   22.6772   25.4611 H   0  0  0  0  0  0  0  0  0  0  0  0
    5.1701   23.0678   25.1309 H   0  0  0  0  0  0  0  0  0  0  0  0
    3.6994   23.4855   27.1089 H   0  0  0  0  0  0  0  0  0  0  0  0
    7.1261   23.1645   29.7228 H   0  0  0  0  0  0  0  0  0  0  0  0
   10.2898   17.6596   30.9638 H   0  0  0  0  0  0  0  0  0  0  0  0
   12.4684   17.7434   32.1687 H   0  0  0  0  0  0  0  0  0  0  0  0
   12.6961   21.9897   31.4444 H   0  0  0  0  0  0  0  0  0  0  0  0
   10.5459   21.9019   30.1805 H   0  0  0  0  0  0  0  0  0  0  0  0
    6.7734   16.4282   29.8928 H   0  0  0  0  0  0  0  0  0  0  0  0
    4.6366   15.1519   30.0949 H   0  0  0  0  0  0  0  0  0  0  0  0
  1  2  2  0
  2  3  1  0
  2  4  1  0
  4  5  2  0
  5  6  1  0
  6  7  2  0
  7  8  1  0
  8  9  1  0
  9 10  2  0
 10 11  1  0
 11 12  1  0
 12 13  1  0
 13 14  2  0
 14 15  1  0
 15 16  2  0
 16 17  1  0
 17 18  1  0
 17 19  2  0
 10 20  1  0
 20 21  1  0
 21 22  2  0
 22 23  1  0
 23 24  2  0
 24 25  1  0
 24 26  1  0
 26 27  2  0
 20 28  2  0
  7 29  1  0
 29 30  2  0
 30  4  1  0
 28  8  1  0
 19 13  1  0
 27 21  1  0
  5 31  1  0
  6 32  1  0
  9 33  1  0
 11 34  1  0
 11 35  1  0
 12 36  1  0
 14 37  1  0
 15 38  1  0
 16 39  1  0
 19 40  1  0
 22 41  1  0
 23 42  1  0
 26 43  1  0
 27 44  1  0
 29 45  1  0
 30 46  1  0
M  CHG  1   3  -1
M  END
>  <meeko>  (19) 
{"is_sidechain": [false], "free_energy": -5.876, "intermolecular_energy": -8.79, "internal_energy": -0.47}

> <PREPARED_BY>
siam chowdhury
Computational and Medicinal Chemistry
[Dr. Alam's Research Team] www.alamresearch.org
Arkansas State University

$$$$
5sa23_out
     RDKit          3D

 46 49  0  0  0  0  0  0  0  0999 V2000
   15.5340   20.2890   31.7130 O   0  0  0  0  0  0  0  0  0  0  0  0
   14.6540   19.5590   32.1420 C   0  0  0  0  0  0  0  0  0  0  0  0
   14.9040   18.5170   32.9630 O   0  0  0  0  0  0  0  0  0  0  0  0
   13.2230   19.7220   31.7780 C   0  0  0  0  0  0  0  0  0  0  0  0
   12.4070   18.5840   31.7720 C   0  0  0  0  0  0  0  0  0  0  0  0
   11.0560   18.6830   31.4130 C   0  0  0  0  0  0  0  0  0  0  0  0
   10.5110   19.9220   31.0410 C   0  0  0  0  0  0  0  0  0  0  0  0
    9.1360   20.0090   30.6720 N   0  0  0  0  0  0  0  0  0  0  0  0
    8.2430   20.9970   31.0000 C   0  0  0  0  0  0  0  0  0  0  0  0
    7.0230   20.6560   30.4520 C   0  0  0  0  0  0  0  0  0  0  0  0
    5.7580   21.4550   30.5420 C   0  0  0  0  0  0  0  0  0  0  0  0
    5.6220   22.4690   29.4930 N   0  0  0  0  0  0  0  0  0  0  0  0
    5.1300   22.0930   28.2380 C   0  0  0  0  0  0  0  0  0  0  0  0
    3.7970   21.6610   28.1350 C   0  0  0  0  0  0  0  0  0  0  0  0
    3.2390   21.2970   26.9040 C   0  0  0  0  0  0  0  0  0  0  0  0
    4.0030   21.3920   25.7470 C   0  0  0  0  0  0  0  0  0  0  0  0
    5.3110   21.8520   25.8360 C   0  0  0  0  0  0  0  0  0  0  0  0
    6.0430   21.9620   24.7190 F   0  0  0  0  0  0  0  0  0  0  0  0
    5.8730   22.2070   27.0610 C   0  0  0  0  0  0  0  0  0  0  0  0
    7.2530   19.3940   29.8220 C   0  0  0  0  0  0  0  0  0  0  0  0
    6.2940   18.5070   29.1430 C   0  0  0  0  0  0  0  0  0  0  0  0
    5.9850   18.6770   27.7840 C   0  0  0  0  0  0  0  0  0  0  0  0
    5.0840   17.8340   27.1290 C   0  0  0  0  0  0  0  0  0  0  0  0
    4.4540   16.8300   27.8460 C   0  0  0  0  0  0  0  0  0  0  0  0
    3.5770   16.0310   27.2240 F   0  0  0  0  0  0  0  0  0  0  0  0
    4.7140   16.6540   29.1990 C   0  0  0  0  0  0  0  0  0  0  0  0
    5.6330   17.4880   29.8470 C   0  0  0  0  0  0  0  0  0  0  0  0
    8.5480   19.0490   29.9190 N   0  0  0  0  0  0  0  0  0  0  0  0
   11.3370   21.0580   31.0340 C   0  0  0  0  0  0  0  0  0  0  0  0
   12.6880   20.9560   31.3950 C   0  0  0  0  0  0  0  0  0  0  0  0
   12.8288   17.6070   32.0506 H   0  0  0  0  0  0  0  0  0  0  0  0
   10.4197   17.7857   31.4228 H   0  0  0  0  0  0  0  0  0  0  0  0
    8.4599   21.8980   31.5925 H   0  0  0  0  0  0  0  0  0  0  0  0
    4.9055   20.7638   30.4686 H   0  0  0  0  0  0  0  0  0  0  0  0
    5.7852   21.9901   31.5027 H   0  0  0  0  0  0  0  0  0  0  0  0
    5.8740   23.4040   29.6690 H   0  0  0  0  0  0  0  0  0  0  0  0
    3.1777   21.6076   29.0426 H   0  0  0  0  0  0  0  0  0  0  0  0
    2.2007   20.9375   26.8526 H   0  0  0  0  0  0  0  0  0  0  0  0
    3.5777   21.1067   24.7735 H   0  0  0  0  0  0  0  0  0  0  0  0
    6.9074   22.5790   27.1010 H   0  0  0  0  0  0  0  0  0  0  0  0
    6.4634   19.4927   27.2221 H   0  0  0  0  0  0  0  0  0  0  0  0
    4.8773   17.9659   26.0567 H   0  0  0  0  0  0  0  0  0  0  0  0
    4.1987   15.8607   29.7604 H   0  0  0  0  0  0  0  0  0  0  0  0
    5.8391   17.3435   30.9178 H   0  0  0  0  0  0  0  0  0  0  0  0
   10.9213   22.0341   30.7434 H   0  0  0  0  0  0  0  0  0  0  0  0
   13.3292   21.8496   31.3769 H   0  0  0  0  0  0  0  0  0  0  0  0
  1  2  2  0
  2  3  1  0
  2  4  1  0
  4  5  2  0
  5  6  1  0
  6  7  2  0
  7  8  1  0
  8  9  1  0
  9 10  2  0
 10 11  1  0
 11 12  1  0
 12 13  1  0
 13 14  2  0
 14 15  1  0
 15 16  2  0
 16 17  1  0
 17 18  1  0
 17 19  2  0
 10 20  1  0
 20 21  1  0
 21 22  2  0
 22 23  1  0
 23 24  2  0
 24 25  1  0
 24 26  1  0
 26 27  2  0
 20 28  2  0
  7 29  1  0
 29 30  2  0
 30  4  1  0
 28  8  1  0
 19 13  1  0
 27 21  1  0
  5 31  1  0
  6 32  1  0
  9 33  1  0
 11 34  1  0
 11 35  1  0
 12 36  1  0
 14 37  1  0
 15 38  1  0
 16 39  1  0
 19 40  1  0
 22 41  1  0
 23 42  1  0
 26 43  1  0
 27 44  1  0
 29 45  1  0
 30 46  1  0
M  CHG  1   3  -1
M  END
>  <meeko>  (20) 
{"is_sidechain": [false], "free_energy": -5.757, "intermolecular_energy": -7.256, "internal_energy": -1.844}

> <PREPARED_BY>
siam chowdhury
Computational and Medicinal Chemistry
[Dr. Alam's Research Team] www.alamresearch.org
Arkansas State University

$$$$
