22sa23_out
 OpenBabel09272602223D

 49 52  0  0  0  0  0  0  0  0999 V2000
    4.4900   14.9460   31.0090 O   0  0  0  0  0  0  0  0  0  0  0  0
    5.3590   14.0910   31.0370 C   0  0  0  0  0  0  0  0  0  0  0  0
    5.2030   12.8640   30.5020 O   0  5  0  0  0  0  0  0  0  0  0  0
    6.7000   14.3330   31.6350 C   0  0  0  0  0  0  0  0  0  0  0  0
    6.9120   14.4400   33.0150 C   0  0  0  0  0  0  0  0  0  0  0  0
    8.1890   14.7500   33.5080 C   0  0  0  0  0  0  0  0  0  0  0  0
    9.2520   14.9840   32.6230 C   0  0  0  0  0  0  0  0  0  0  0  0
   10.5150   15.4230   33.1230 N   0  0  0  0  0  0  0  0  0  0  0  0
   11.3120   14.7650   34.0240 C   0  0  0  0  0  0  0  0  0  0  0  0
   12.5020   15.4540   34.1010 C   0  0  0  0  0  0  0  0  0  0  0  0
   13.7110   15.0230   34.8620 C   0  0  0  0  0  0  0  0  0  0  0  0
   13.5350   15.0480   36.3110 N   0  0  0  0  0  0  0  0  0  0  0  0
   14.2880   15.9190   37.0940 C   0  0  0  0  0  0  0  0  0  0  0  0
   15.6080   15.6700   37.4820 C   0  0  0  0  0  0  0  0  0  0  0  0
   16.3420   16.6230   38.1930 C   0  0  0  0  0  0  0  0  0  0  0  0
   15.7690   17.8500   38.5040 C   0  0  0  0  0  0  0  0  0  0  0  0
   16.5000   18.7390   39.1850 F   0  0  0  0  0  0  0  0  0  0  0  0
   14.4740   18.1520   38.1040 C   0  0  0  0  0  0  0  0  0  0  0  0
   13.8480   19.4760   38.4130 C   0  0  0  0  0  0  0  0  0  0  0  0
   13.7640   19.7870   39.7330 F   0  0  0  0  0  0  0  0  0  0  0  0
   14.5200   20.5100   37.8310 F   0  0  0  0  0  0  0  0  0  0  0  0
   12.5730   19.5580   37.9340 F   0  0  0  0  0  0  0  0  0  0  0  0
   13.7510   17.1830   37.3840 C   0  0  0  0  0  0  0  0  0  0  0  0
   12.3030   16.6150   33.2950 C   0  0  0  0  0  0  0  0  0  0  0  0
   13.2190   17.7490   33.0840 C   0  0  0  0  0  0  0  0  0  0  0  0
   12.8950   18.7880   32.1940 C   0  0  0  0  0  0  0  0  0  0  0  0
   13.7530   19.8760   32.0100 C   0  0  0  0  0  0  0  0  0  0  0  0
   14.9570   19.9180   32.6980 C   0  0  0  0  0  0  0  0  0  0  0  0
   15.7840   20.9560   32.5150 F   0  0  0  0  0  0  0  0  0  0  0  0
   15.3140   18.8960   33.5650 C   0  0  0  0  0  0  0  0  0  0  0  0
   14.4490   17.8130   33.7600 C   0  0  0  0  0  0  0  0  0  0  0  0
   11.1090   16.5570   32.6760 N   0  0  0  0  0  0  0  0  0  0  0  0
    9.0380   14.8470   31.2440 C   0  0  0  0  0  0  0  0  0  0  0  0
    7.7690   14.5260   30.7550 C   0  0  0  0  0  0  0  0  0  0  0  0
    6.0770   14.2810   33.7132 H   0  0  0  0  0  0  0  0  0  0  0  0
    8.3571   14.8098   34.5934 H   0  0  0  0  0  0  0  0  0  0  0  0
   11.0493   13.8545   34.5825 H   0  0  0  0  0  0  0  0  0  0  0  0
   13.9622   13.9953   34.5608 H   0  0  0  0  0  0  0  0  0  0  0  0
   14.5114   15.7390   34.6241 H   0  0  0  0  0  0  0  0  0  0  0  0
   12.8820   14.4470   36.7360 H   0  0  0  0  0  0  0  0  0  0  0  0
   16.0760   14.7087   37.2234 H   0  0  0  0  0  0  0  0  0  0  0  0
   17.3730   16.4019   38.5064 H   0  0  0  0  0  0  0  0  0  0  0  0
   12.7348   17.4232   37.0382 H   0  0  0  0  0  0  0  0  0  0  0  0
   11.9500   18.7439   31.6328 H   0  0  0  0  0  0  0  0  0  0  0  0
   13.4761   20.6916   31.3258 H   0  0  0  0  0  0  0  0  0  0  0  0
   16.2752   18.9365   34.0984 H   0  0  0  0  0  0  0  0  0  0  0  0
   14.7349   17.0045   34.4489 H   0  0  0  0  0  0  0  0  0  0  0  0
    9.8735   14.9930   30.5435 H   0  0  0  0  0  0  0  0  0  0  0  0
    7.6102   14.4246   29.6713 H   0  0  0  0  0  0  0  0  0  0  0  0
  1  2  2  0  0  0  0
  2  3  1  0  0  0  0
  2  4  1  0  0  0  0
  4  5  2  0  0  0  0
  5  6  1  0  0  0  0
  5 35  1  0  0  0  0
  6  7  2  0  0  0  0
  6 36  1  0  0  0  0
  7  8  1  0  0  0  0
  7 33  1  0  0  0  0
  8  9  1  0  0  0  0
  9 10  2  0  0  0  0
  9 37  1  0  0  0  0
 10 11  1  0  0  0  0
 10 24  1  0  0  0  0
 11 12  1  0  0  0  0
 11 38  1  0  0  0  0
 11 39  1  0  0  0  0
 12 13  1  0  0  0  0
 12 40  1  0  0  0  0
 13 14  2  0  0  0  0
 14 15  1  0  0  0  0
 14 41  1  0  0  0  0
 15 16  2  0  0  0  0
 15 42  1  0  0  0  0
 16 17  1  0  0  0  0
 16 18  1  0  0  0  0
 18 19  1  0  0  0  0
 18 23  2  0  0  0  0
 19 20  1  0  0  0  0
 19 21  1  0  0  0  0
 19 22  1  0  0  0  0
 23 13  1  0  0  0  0
 23 43  1  0  0  0  0
 24 25  1  0  0  0  0
 24 32  2  0  0  0  0
 25 26  2  0  0  0  0
 26 27  1  0  0  0  0
 26 44  1  0  0  0  0
 27 28  2  0  0  0  0
 27 45  1  0  0  0  0
 28 29  1  0  0  0  0
 28 30  1  0  0  0  0
 30 31  2  0  0  0  0
 30 46  1  0  0  0  0
 31 25  1  0  0  0  0
 31 47  1  0  0  0  0
 32  8  1  0  0  0  0
 33 34  2  0  0  0  0
 33 48  1  0  0  0  0
 34  4  1  0  0  0  0
 34 49  1  0  0  0  0
M  CHG  1   3  -1
M  END
>  <meeko>
{"is_sidechain": [false], "free_energy": -8.36, "intermolecular_energy": -11.781, "internal_energy": -1.402}

>  <PREPARED_BY>
siam chowdhury
Computational and Medicinal Chemistry
[Dr. Alam's Research Team] www.alamresearch.org
Arkansas State University

$$$$
