9sa23_out
 OpenBabel09272602143D

 46 49  0  0  0  0  0  0  0  0999 V2000
    6.0640   14.0670   30.6130 O   0  0  0  0  0  0  0  0  0  0  0  0
    6.3030   14.2570   31.7920 C   0  0  0  0  0  0  0  0  0  0  0  0
    5.3720   14.1300   32.7600 O   0  5  0  0  0  0  0  0  0  0  0  0
    7.6600   14.6080   32.2900 C   0  0  0  0  0  0  0  0  0  0  0  0
    8.0390   14.4970   33.6350 C   0  0  0  0  0  0  0  0  0  0  0  0
    9.3160   14.9080   34.0450 C   0  0  0  0  0  0  0  0  0  0  0  0
   10.2140   15.4590   33.1190 C   0  0  0  0  0  0  0  0  0  0  0  0
   11.4720   15.9690   33.5490 N   0  0  0  0  0  0  0  0  0  0  0  0
   12.2750   16.8450   32.8680 C   0  0  0  0  0  0  0  0  0  0  0  0
   13.3220   17.1790   33.6970 C   0  0  0  0  0  0  0  0  0  0  0  0
   14.3670   18.2030   33.4120 C   0  0  0  0  0  0  0  0  0  0  0  0
   14.1460   19.4890   34.0660 N   0  0  0  0  0  0  0  0  0  0  0  0
   14.6500   19.6780   35.3580 C   0  0  0  0  0  0  0  0  0  0  0  0
   15.9620   19.3500   35.7240 C   0  0  0  0  0  0  0  0  0  0  0  0
   16.4470   19.6120   37.0090 C   0  0  0  0  0  0  0  0  0  0  0  0
   15.6320   20.2380   37.9450 C   0  0  0  0  0  0  0  0  0  0  0  0
   14.3450   20.6210   37.5790 C   0  0  0  0  0  0  0  0  0  0  0  0
   13.2420   21.5060   38.8350 Br  0  0  0  0  0  0  0  0  0  0  0  0
   13.8630   20.3610   36.2950 C   0  0  0  0  0  0  0  0  0  0  0  0
   13.1460   16.3600   34.8520 C   0  0  0  0  0  0  0  0  0  0  0  0
   14.0290   16.2420   36.0250 C   0  0  0  0  0  0  0  0  0  0  0  0
   13.6670   16.8080   37.2600 C   0  0  0  0  0  0  0  0  0  0  0  0
   14.4920   16.6890   38.3820 C   0  0  0  0  0  0  0  0  0  0  0  0
   15.7010   16.0230   38.2690 C   0  0  0  0  0  0  0  0  0  0  0  0
   16.5000   15.9200   39.3390 F   0  0  0  0  0  0  0  0  0  0  0  0
   16.0960   15.4680   37.0570 C   0  0  0  0  0  0  0  0  0  0  0  0
   15.2620   15.5760   35.9370 C   0  0  0  0  0  0  0  0  0  0  0  0
   11.9930   15.6690   34.7680 N   0  0  0  0  0  0  0  0  0  0  0  0
    9.8330   15.5520   31.7700 C   0  0  0  0  0  0  0  0  0  0  0  0
    8.5650   15.1300   31.3620 C   0  0  0  0  0  0  0  0  0  0  0  0
    7.3326   14.0862   34.3714 H   0  0  0  0  0  0  0  0  0  0  0  0
    9.6146   14.7976   35.0979 H   0  0  0  0  0  0  0  0  0  0  0  0
   12.1128   17.2145   31.8447 H   0  0  0  0  0  0  0  0  0  0  0  0
   15.3367   17.8079   33.7491 H   0  0  0  0  0  0  0  0  0  0  0  0
   14.3337   18.3921   32.3289 H   0  0  0  0  0  0  0  0  0  0  0  0
   13.6520   20.2080   33.6090 H   0  0  0  0  0  0  0  0  0  0  0  0
   16.6246   18.8763   34.9847 H   0  0  0  0  0  0  0  0  0  0  0  0
   17.4733   19.3228   37.2792 H   0  0  0  0  0  0  0  0  0  0  0  0
   16.0002   20.4286   38.9639 H   0  0  0  0  0  0  0  0  0  0  0  0
   12.8533   20.6962   36.0153 H   0  0  0  0  0  0  0  0  0  0  0  0
   12.7164   17.3549   37.3449 H   0  0  0  0  0  0  0  0  0  0  0  0
   14.1838   17.1203   39.3458 H   0  0  0  0  0  0  0  0  0  0  0  0
   17.0608   14.9456   36.9779 H   0  0  0  0  0  0  0  0  0  0  0  0
   15.5759   15.1349   34.9794 H   0  0  0  0  0  0  0  0  0  0  0  0
   10.5375   15.9597   31.0301 H   0  0  0  0  0  0  0  0  0  0  0  0
    8.2773   15.2092   30.3033 H   0  0  0  0  0  0  0  0  0  0  0  0
  1  2  2  0  0  0  0
  2  3  1  0  0  0  0
  2  4  1  0  0  0  0
  4  5  2  0  0  0  0
  5  6  1  0  0  0  0
  5 31  1  0  0  0  0
  6  7  2  0  0  0  0
  6 32  1  0  0  0  0
  7  8  1  0  0  0  0
  7 29  1  0  0  0  0
  8  9  1  0  0  0  0
  9 10  2  0  0  0  0
  9 33  1  0  0  0  0
 10 11  1  0  0  0  0
 10 20  1  0  0  0  0
 11 12  1  0  0  0  0
 11 34  1  0  0  0  0
 11 35  1  0  0  0  0
 12 13  1  0  0  0  0
 12 36  1  0  0  0  0
 13 14  2  0  0  0  0
 14 15  1  0  0  0  0
 14 37  1  0  0  0  0
 15 16  2  0  0  0  0
 15 38  1  0  0  0  0
 16 17  1  0  0  0  0
 16 39  1  0  0  0  0
 17 18  1  0  0  0  0
 17 19  2  0  0  0  0
 19 13  1  0  0  0  0
 19 40  1  0  0  0  0
 20 21  1  0  0  0  0
 20 28  2  0  0  0  0
 21 22  2  0  0  0  0
 22 23  1  0  0  0  0
 22 41  1  0  0  0  0
 23 24  2  0  0  0  0
 23 42  1  0  0  0  0
 24 25  1  0  0  0  0
 24 26  1  0  0  0  0
 26 27  2  0  0  0  0
 26 43  1  0  0  0  0
 27 21  1  0  0  0  0
 27 44  1  0  0  0  0
 28  8  1  0  0  0  0
 29 30  2  0  0  0  0
 29 45  1  0  0  0  0
 30  4  1  0  0  0  0
 30 46  1  0  0  0  0
M  CHG  1   3  -1
M  END
>  <meeko>
{"is_sidechain": [false], "free_energy": -7.157, "intermolecular_energy": -9.668, "internal_energy": -2.254}

>  <PREPARED_BY>
siam chowdhury
Computational and Medicinal Chemistry
[Dr. Alam's Research Team] www.alamresearch.org
Arkansas State University

$$$$
