@<TRIPOS>MOLECULE
LIG
   46    49     1     0     0
SMALL
bcc


@<TRIPOS>ATOM
      1 O1           5.8350    13.7680    30.6280 o          1 LIG      -0.820300
      2 C1           6.1240    14.0990    31.7650 c          1 LIG       0.908200
      3 O2           5.2380    14.1150    32.7830 o          1 LIG      -0.820300
      4 C2           7.4820    14.5520    32.1540 ca         1 LIG      -0.109600
      5 C3           7.8350    14.5350    33.5090 ca         1 LIG      -0.102500
      6 C4           9.0950    14.9910    33.9170 ca         1 LIG      -0.146000
      7 C5          10.0040    15.4850    32.9700 ca         1 LIG      -0.049200
      8 N1          11.2660    15.9970    33.3910 na         1 LIG       0.213300
      9 C6          12.0360    16.9220    32.7330 cc         1 LIG      -0.131300
     10 C7          13.1360    17.1800    33.5200 cd         1 LIG      -0.292600
     11 C8          14.2020    18.1820    33.2290 c3         1 LIG       0.278100
     12 N2          14.0070    19.4600    33.9080 nu         1 LIG      -0.733600
     13 C9          14.5980    19.6730    35.1550 ca         1 LIG       0.183600
     14 C10         15.8790    19.1430    35.3890 ca         1 LIG      -0.189000
     15 C11         16.5000    19.2640    36.6340 ca         1 LIG      -0.103000
     16 C12         15.8290    19.8910    37.6730 ca         1 LIG       0.029900
     17 F1          16.4210    20.0070    38.8680 f          1 LIG      -0.137900
     18 C13         14.5460    20.3790    37.4730 ca         1 LIG       0.134900
     19 F2          13.8820    20.9620    38.4850 f          1 LIG      -0.132900
     20 C14         13.9260    20.2620    36.2320 ca         1 LIG      -0.223000
     21 C15         13.0000    16.2980    34.6330 cd         1 LIG       0.338800
     22 C16         13.9240    16.1060    35.7620 ca         1 LIG      -0.106500
     23 C17         13.6730    16.6940    37.0140 ca         1 LIG      -0.091500
     24 C18         14.5330    16.4830    38.0940 ca         1 LIG      -0.170000
     25 C19         15.6660    15.7020    37.9230 ca         1 LIG       0.114900
     26 F3          16.4950    15.5050    38.9570 f          1 LIG      -0.149900
     27 C20         15.9540    15.1290    36.6910 ca         1 LIG      -0.170000
     28 C21         15.0860    15.3310    35.6120 ca         1 LIG      -0.091500
     29 N3          11.8400    15.6210    34.5590 nc         1 LIG      -0.484800
     30 C22          9.6410    15.4990    31.6120 ca         1 LIG      -0.146000
     31 C23          8.3830    15.0450    31.2080 ca         1 LIG      -0.102500
     32 H1           7.1200    14.1620    34.2570 ha         1 LIG       0.163000
     33 H2           9.3720    14.9620    34.9810 ha         1 LIG       0.126500
     34 H3          11.8150    17.3750    31.7550 h4         1 LIG       0.188000
     35 H4          15.1680    17.7640    33.5470 h1         1 LIG       0.047700
     36 H5          14.1680    18.3840    32.1480 h1         1 LIG       0.047700
     37 H6          13.4610    20.1660    33.4900 hn         1 LIG       0.415800
     38 H7          16.4030    18.6220    34.5740 ha         1 LIG       0.143000
     39 H8          17.5130    18.8650    36.7890 ha         1 LIG       0.146000
     40 H9          12.9000    20.6350    36.0970 ha         1 LIG       0.154000
     41 H10         12.7850    17.3300    37.1450 ha         1 LIG       0.147500
     42 H11         14.3130    16.9330    39.0730 ha         1 LIG       0.143500
     43 H12         16.8600    14.5190    36.5640 ha         1 LIG       0.143500
     44 H13         15.3160    14.8780    34.6360 ha         1 LIG       0.147500
     45 H14         10.3540    15.8710    30.8610 ha         1 LIG       0.126500
     46 H15          8.1020    15.0760    30.1450 ha         1 LIG       0.163000
@<TRIPOS>BOND
     1     1     2 1   
     2     2     3 1   
     3     2     4 1   
     4     4     5 ar  
     5     5     6 ar  
     6     5    32 1   
     7     6     7 ar  
     8     6    33 1   
     9     7     8 1   
    10     7    30 ar  
    11     8     9 1   
    12     9    10 2   
    13     9    34 1   
    14    10    11 1   
    15    10    21 1   
    16    11    12 1   
    17    11    35 1   
    18    11    36 1   
    19    12    13 1   
    20    12    37 1   
    21    13    14 ar  
    22    14    15 ar  
    23    14    38 1   
    24    15    16 ar  
    25    15    39 1   
    26    16    17 1   
    27    16    18 ar  
    28    18    19 1   
    29    18    20 ar  
    30    20    13 ar  
    31    20    40 1   
    32    21    22 1   
    33    21    29 2   
    34    22    23 ar  
    35    23    24 ar  
    36    23    41 1   
    37    24    25 ar  
    38    24    42 1   
    39    25    26 1   
    40    25    27 ar  
    41    27    28 ar  
    42    27    43 1   
    43    28    22 ar  
    44    28    44 1   
    45    29     8 1   
    46    30    31 ar  
    47    30    45 1   
    48    31     4 ar  
    49    31    46 1   
@<TRIPOS>SUBSTRUCTURE
     1 LIG         1 TEMP              0 ****  ****    0 ROOT
